miqcp/testcases/nesta_case162_ieee_dtc__api.m
%%%%%%%%%%%%%%%%%%%%%%%%%%%%%%%%%%%%%%%%%%%%%%%%%%%%%%%%%%%%%%%%%%%%%%%%%%%
%%%%                                                                  %%%%%
%%%%      NICTA Energy System Test Case Archive (NESTA) - v0.7.0      %%%%%
%%%%            Optimal Power Flow - Active Power Increase            %%%%%
%%%%                         05 - June - 2017                         %%%%%
%%%%                                                                  %%%%%
%%%%%%%%%%%%%%%%%%%%%%%%%%%%%%%%%%%%%%%%%%%%%%%%%%%%%%%%%%%%%%%%%%%%%%%%%%%
function mpc = nesta_case162_ieee_dtc__api
mpc.version = '2';
mpc.baseMVA = 100.0;

%% bus data
%	bus_i	type	Pd	Qd	Gs	Bs	area	Vm	Va	baseKV	zone	Vmax	Vmin
mpc.bus = [
	1	 1	 0.00	 0.00	 0.0	 -100.0	 1	    1.04038	    5.20004	 345.0	 9	    1.06000	    0.94000;
	2	 1	 0.00	 0.00	 0.0	 0.0	 1	    1.04234	    0.48650	 345.0	 9	    1.06000	    0.94000;
	3	 1	 406.38	 96.90	 0.0	 0.0	 1	    0.99797	   -3.83003	 161.0	 12	    1.06000	    0.94000;
	4	 1	 0.00	 0.00	 0.0	 0.0	 1	    1.01665	   -5.01486	 345.0	 3	    1.06000	    0.94000;
	5	 1	 0.00	 0.00	 0.0	 -50.0	 1	    1.05360	    6.39688	 345.0	 8	    1.06000	    0.94000;
	6	 2	 0.00	 0.00	 0.0	 0.0	 1	    0.99791	   12.10317	 22.0	 9	    1.06000	    0.94000;
	7	 1	 0.00	 0.00	 0.0	 0.0	 1	    1.04014	    0.23867	 345.0	 9	    1.06000	    0.94000;
	8	 1	 398.00	 0.00	 0.0	 0.0	 1	    1.05966	   -3.11707	 115.0	 12	    1.06000	    0.94000;
	9	 1	 0.00	 0.00	 0.0	 0.0	 1	    1.04673	    3.01227	 345.0	 8	    1.06000	    0.94000;
	10	 1	 226.00	 0.00	 0.0	 0.0	 1	    1.00346	   -6.94232	 230.0	 12	    1.06000	    0.94000;
	11	 1	 0.00	 0.00	 0.0	 0.0	 1	    1.01238	   -3.35327	 230.0	 10	    1.06000	    0.94000;
	12	 1	 193.00	 0.00	 0.0	 0.0	 1	    1.06000	   -3.01110	 115.0	 12	    1.06000	    0.94000;
	13	 1	 204.00	 0.00	 0.0	 0.0	 1	    1.04284	   -0.81441	 345.0	 12	    1.06000	    0.94000;
	14	 1	 381.00	 0.00	 0.0	 0.0	 1	    1.05707	   -0.22186	 161.0	 12	    1.06000	    0.94000;
	15	 1	 -80.00	 0.00	 0.0	 0.0	 1	    1.03299	    3.84865	 230.0	 12	    1.06000	    0.94000;
	16	 1	 -54.20	 0.00	 0.0	 0.0	 1	    1.05523	   -3.65135	 161.0	 12	    1.06000	    0.94000;
	17	 1	 -116.50	 0.00	 0.0	 0.0	 1	    1.05753	   -3.30806	 161.0	 12	    1.06000	    0.94000;
	18	 1	 37.78	 11.67	 0.0	 0.0	 1	    1.06000	   -7.59077	 161.0	 6	    1.06000	    0.94000;
	19	 1	 64.40	 0.00	 0.0	 0.0	 1	    1.00009	  -12.18229	 161.0	 12	    1.06000	    0.94000;
	20	 1	 41.63	 12.50	 0.0	 0.0	 1	    0.98622	   -4.22301	 69.0	 10	    1.06000	    0.94000;
	21	 1	 -69.80	 0.00	 0.0	 0.0	 1	    1.04495	   -4.90409	 161.0	 12	    1.06000	    0.94000;
	22	 1	 19.10	 5.27	 0.0	 0.0	 1	    1.02617	  -11.74240	 161.0	 6	    1.06000	    0.94000;
	23	 1	 63.50	 0.00	 0.0	 0.0	 1	    1.00785	   -6.95746	 161.0	 12	    1.06000	    0.94000;
	24	 1	 0.00	 0.00	 0.0	 0.0	 1	    1.01589	   -5.33433	 161.0	 6	    1.06000	    0.94000;
	25	 1	 0.00	 0.00	 0.0	 -50.0	 1	    1.00308	   -1.10158	 345.0	 6	    1.06000	    0.94000;
	26	 1	 0.00	 0.00	 0.0	 -50.0	 1	    1.02792	    8.94739	 345.0	 1	    1.06000	    0.94000;
	27	 1	 355.86	 57.90	 0.0	 0.0	 1	    1.00417	   -3.23987	 345.0	 12	    1.06000	    0.94000;
	28	 1	 42.25	 13.17	 0.0	 0.0	 1	    0.99356	   -8.66838	 161.0	 6	    1.06000	    0.94000;
	29	 1	 31.09	 9.03	 0.0	 0.0	 1	    0.99428	  -10.97702	 161.0	 6	    1.06000	    0.94000;
	30	 1	 111.15	 32.52	 0.0	 15.0	 1	    1.01032	  -13.62363	 161.0	 6	    1.06000	    0.94000;
	31	 1	 72.50	 0.00	 0.0	 0.0	 1	    0.99504	   -9.99666	 161.0	 12	    1.06000	    0.94000;
	32	 1	 57.88	 15.06	 0.0	 20.0	 1	    1.01162	  -14.98181	 161.0	 6	    1.06000	    0.94000;
	33	 1	 49.61	 15.06	 0.0	 20.0	 1	    0.99640	  -16.90909	 161.0	 6	    1.06000	    0.94000;
	34	 1	 15.57	 5.25	 0.0	 3.2	 1	    0.98865	  -16.71569	 161.0	 1	    1.06000	    0.94000;
	35	 1	 59.84	 14.63	 0.0	 5.0	 1	    0.98134	  -18.75577	 161.0	 1	    1.06000	    0.94000;
	36	 1	 35.10	 8.68	 0.0	 3.0	 1	    0.99139	  -16.83204	 161.0	 2	    1.06000	    0.94000;
	37	 1	 0.00	 0.00	 0.0	 0.0	 1	    0.99967	   -4.19803	 345.0	 11	    1.06000	    0.94000;
	38	 1	 16.21	 4.08	 0.0	 1.5	 1	    1.00997	  -12.33602	 161.0	 2	    1.06000	    0.94000;
	39	 1	 0.00	 0.00	 0.0	 0.0	 1	    0.97816	   -6.88593	 345.0	 6	    1.06000	    0.94000;
	40	 1	 58.08	 17.60	 0.0	 0.0	 1	    0.98632	  -16.41127	 161.0	 1	    1.06000	    0.94000;
	41	 1	 43.05	 12.80	 0.0	 0.0	 1	    0.98835	  -14.51457	 161.0	 1	    1.06000	    0.94000;
	42	 1	 0.00	 0.00	 0.0	 0.0	 1	    0.98314	   -6.57549	 345.0	 2	    1.06000	    0.94000;
	43	 1	 41.50	 0.00	 0.0	 0.0	 1	    0.98671	   -9.71396	 161.0	 12	    1.06000	    0.94000;
	44	 1	 17.92	 3.71	 0.0	 0.0	 1	    0.98089	  -10.33034	 161.0	 2	    1.06000	    0.94000;
	45	 1	 21.99	 5.41	 0.0	 1.9	 1	    0.99352	   -8.39139	 161.0	 2	    1.06000	    0.94000;
	46	 1	 71.73	 22.30	 0.0	 26.2	 1	    0.99645	  -11.07856	 161.0	 10	    1.06000	    0.94000;
	47	 1	 5.29	 1.56	 0.0	 0.0	 1	    0.97361	  -14.02041	 161.0	 2	    1.06000	    0.94000;
	48	 1	 37.08	 22.86	 0.0	 0.0	 1	    0.97357	  -12.45500	 161.0	 10	    1.06000	    0.94000;
	49	 1	 7.49	 1.78	 0.0	 0.0	 1	    0.97128	  -14.40608	 161.0	 2	    1.06000	    0.94000;
	50	 1	 99.70	 0.00	 0.0	 0.0	 1	    0.97268	  -11.09800	 161.0	 12	    1.06000	    0.94000;
	51	 1	 0.00	 0.00	 0.0	 0.0	 1	    0.97772	   -9.37705	 161.0	 3	    1.06000	    0.94000;
	52	 1	 239.65	 42.80	 0.0	 0.0	 1	    1.01168	  -12.04666	 161.0	 3	    1.06000	    0.94000;
	53	 1	 0.00	 0.00	 0.0	 0.0	 1	    1.00282	   -2.06910	 161.0	 10	    1.06000	    0.94000;
	54	 1	 77.26	 29.57	 0.0	 0.0	 1	    0.98019	  -10.14709	 161.0	 10	    1.06000	    0.94000;
	55	 1	 0.00	 0.00	 0.0	 0.0	 1	    1.00307	   -1.73920	 161.0	 1	    1.06000	    0.94000;
	56	 1	 27.78	 7.26	 0.0	 3.2	 1	    0.98264	  -13.26567	 161.0	 7	    1.06000	    0.94000;
	57	 1	 53.25	 15.61	 0.0	 0.0	 1	    0.98081	   -9.53326	 161.0	 1	    1.06000	    0.94000;
	58	 1	 0.00	 0.00	 0.0	 0.0	 1	    1.02509	   -0.32703	 230.0	 10	    1.06000	    0.94000;
	59	 1	 92.73	 27.05	 0.0	 0.0	 1	    1.00085	   -4.72142	 230.0	 10	    1.06000	    0.94000;
	60	 1	 244.00	 0.00	 0.0	 0.0	 1	    1.02148	   -5.66970	 115.0	 12	    1.06000	    0.94000;
	61	 1	 0.00	 0.00	 0.0	 0.0	 1	    1.00601	   -3.16058	 230.0	 10	    1.06000	    0.94000;
	62	 1	 -865.60	 0.00	 0.0	 0.0	 1	    1.03584	    9.56513	 230.0	 12	    1.06000	    0.94000;
	63	 1	 59.10	 0.00	 0.0	 0.0	 1	    1.00834	   -1.51742	 230.0	 12	    1.06000	    0.94000;
	64	 1	 0.00	 0.00	 0.0	 0.0	 1	    1.04381	   -0.69971	 345.0	 10	    1.06000	    0.94000;
	65	 1	 -26.30	 0.00	 0.0	 0.0	 1	    1.04128	    2.42281	 345.0	 12	    1.06000	    0.94000;
	66	 1	 0.00	 0.00	 0.0	 -50.0	 1	    1.01703	   -2.68479	 345.0	 10	    1.06000	    0.94000;
	67	 1	 24.76	 7.03	 0.0	 6.0	 1	    0.99175	  -14.83193	 161.0	 7	    1.06000	    0.94000;
	68	 1	 44.39	 12.68	 0.0	 12.0	 1	    1.00331	  -12.89830	 161.0	 7	    1.06000	    0.94000;
	69	 1	 0.00	 0.00	 0.0	 0.0	 1	    1.01001	  -11.34059	 161.0	 1	    1.06000	    0.94000;
	70	 1	 0.00	 0.00	 0.0	 0.0	 1	    1.03612	    5.74051	 161.0	 1	    1.06000	    0.94000;
	71	 1	 32.81	 11.93	 0.0	 12.0	 1	    0.98833	   -3.21262	 161.0	 1	    1.06000	    0.94000;
	72	 1	 427.00	 0.00	 0.0	 0.0	 1	    1.04613	   -0.00874	 161.0	 12	    1.06000	    0.94000;
	73	 2	 0.00	 0.00	 0.0	 0.0	 1	    1.02632	   10.22655	 20.0	 1	    1.06000	    0.94000;
	74	 1	 0.00	 0.00	 0.0	 0.0	 1	    1.00227	   -5.08104	 345.0	 5	    1.06000	    0.94000;
	75	 1	 0.00	 0.00	 0.0	 -50.0	 1	    1.04965	    5.47401	 345.0	 8	    1.06000	    0.94000;
	76	 2	 0.00	 0.00	 0.0	 0.0	 1	    0.98629	   14.96696	 24.0	 1	    1.06000	    0.94000;
	77	 1	 29.01	 8.78	 0.0	 4.7	 1	    1.00047	  -13.33152	 161.0	 1	    1.06000	    0.94000;
	78	 1	 79.12	 0.00	 0.0	 0.0	 1	    1.01248	  -10.38528	 161.0	 5	    1.06000	    0.94000;
	79	 1	 0.00	 0.00	 0.0	 0.0	 1	    1.02219	   -8.10767	 161.0	 5	    1.06000	    0.94000;
	80	 1	 17.31	 5.25	 0.0	 2.8	 1	    0.99617	  -10.49310	 161.0	 1	    1.06000	    0.94000;
	81	 1	 55.88	 16.80	 0.0	 22.1	 1	    0.98123	  -21.47461	 69.0	 1	    1.06000	    0.94000;
	82	 1	 68.40	 20.26	 0.0	 10.4	 1	    0.98354	  -16.43482	 161.0	 1	    1.06000	    0.94000;
	83	 1	 0.00	 0.00	 0.0	 0.0	 1	    0.98601	  -15.48730	 161.0	 1	    1.06000	    0.94000;
	84	 1	 41.63	 9.49	 0.0	 2.6	 1	    0.97969	  -11.86154	 161.0	 2	    1.06000	    0.94000;
	85	 1	 44.50	 11.26	 0.0	 12.0	 1	    0.95535	  -13.70177	 161.0	 1	    1.06000	    0.94000;
	86	 1	 55.72	 13.35	 0.0	 12.0	 1	    0.95099	  -18.23044	 161.0	 2	    1.06000	    0.94000;
	87	 1	 18.57	 4.23	 0.0	 0.0	 1	    0.96172	  -16.31811	 115.0	 2	    1.06000	    0.94000;
	88	 1	 66.56	 4.44	 0.0	 0.0	 1	    0.97058	  -18.41671	 69.0	 4	    1.06000	    0.94000;
	89	 1	 0.00	 0.00	 0.0	 0.0	 1	    0.97224	  -19.61950	 115.0	 2	    1.06000	    0.94000;
	90	 1	 55.15	 16.76	 0.0	 10.0	 1	    0.94000	  -22.64426	 115.0	 2	    1.06000	    0.94000;
	91	 1	 56.28	 12.83	 0.0	 0.0	 1	    0.98284	  -10.61330	 161.0	 2	    1.06000	    0.94000;
	92	 1	 39.67	 9.05	 0.0	 0.0	 1	    0.97348	  -11.80870	 161.0	 2	    1.06000	    0.94000;
	93	 1	 114.01	 34.56	 0.0	 0.0	 1	    0.98573	   -5.99831	 161.0	 2	    1.06000	    0.94000;
	94	 1	 180.12	 6.49	 0.0	 0.0	 1	    1.00392	  -11.04163	 161.0	 5	    1.06000	    0.94000;
	95	 1	 128.72	 39.01	 0.0	 0.0	 1	    1.00490	  -10.59201	 115.0	 2	    1.06000	    0.94000;
	96	 1	 119.20	 0.00	 0.0	 0.0	 1	    0.98909	  -19.04647	 115.0	 2	    1.06000	    0.94000;
	97	 1	 25.09	 5.71	 0.0	 0.0	 1	    0.99934	  -11.50263	 115.0	 2	    1.06000	    0.94000;
	98	 1	 165.96	 50.35	 0.0	 0.0	 1	    1.00256	   -9.08163	 115.0	 2	    1.06000	    0.94000;
	99	 2	 0.00	 0.00	 0.0	 0.0	 1	    1.00821	   -5.00497	 18.0	 2	    1.06000	    0.94000;
	100	 1	 25.49	 6.90	 0.0	 3.0	 1	    0.97480	  -19.90696	 115.0	 2	    1.06000	    0.94000;
	101	 2	 0.00	 0.00	 0.0	 0.0	 1	    0.99859	  -13.68793	 14.0	 2	    1.06000	    0.94000;
	102	 1	 18.17	 4.08	 0.0	 0.0	 1	    0.97563	  -11.28673	 161.0	 2	    1.06000	    0.94000;
	103	 1	 322.00	 0.00	 0.0	 0.0	 1	    0.99017	   -8.69157	 161.0	 12	    1.06000	    0.94000;
	104	 1	 34.62	 10.46	 0.0	 5.6	 1	    0.98207	  -18.56377	 115.0	 2	    1.06000	    0.94000;
	105	 1	 27.28	 6.23	 0.0	 1.7	 1	    1.01531	  -13.02582	 115.0	 2	    1.06000	    0.94000;
	106	 1	 0.00	 0.00	 0.0	 0.0	 1	    0.97583	  -16.46014	 161.0	 4	    1.06000	    0.94000;
	107	 1	 38.89	 5.41	 0.0	 0.0	 1	    0.95995	  -17.79440	 161.0	 4	    1.06000	    0.94000;
	108	 3	 0.00	 0.00	 0.0	 0.0	 1	    0.94000	   -0.00000	 22.0	 2	    1.06000	    0.94000;
	109	 1	 0.00	 0.00	 0.0	 0.0	 1	    0.99739	   -6.72586	 345.0	 5	    1.06000	    0.94000;
	110	 1	 0.00	 0.00	 0.0	 0.0	 1	    1.04993	    0.87881	 161.0	 3	    1.06000	    0.94000;
	111	 1	 71.84	 16.72	 0.0	 0.0	 1	    1.01836	   -4.30072	 161.0	 3	    1.06000	    0.94000;
	112	 1	 0.00	 0.00	 0.0	 -50.0	 1	    1.04782	    3.67037	 345.0	 3	    1.06000	    0.94000;
	113	 1	 32.70	 0.00	 0.0	 0.0	 1	    1.04613	   -0.21109	 161.0	 12	    1.06000	    0.94000;
	114	 2	 0.00	 0.00	 0.0	 0.0	 1	    1.06000	    6.21727	 14.0	 3	    1.06000	    0.94000;
	115	 1	 19.02	 3.34	 0.0	 0.0	 1	    1.01467	   -7.71355	 161.0	 3	    1.06000	    0.94000;
	116	 1	 61.59	 11.20	 0.0	 0.0	 1	    1.01872	   -9.38723	 161.0	 3	    1.06000	    0.94000;
	117	 1	 111.92	 20.06	 0.0	 0.0	 1	    1.01001	  -10.03575	 161.0	 3	    1.06000	    0.94000;
	118	 2	 0.00	 0.00	 0.0	 0.0	 1	    1.02440	   -7.11630	 14.0	 3	    1.06000	    0.94000;
	119	 1	 0.00	 0.00	 0.0	 0.0	 1	    1.00375	   -7.10034	 345.0	 3	    1.06000	    0.94000;
	120	 1	 0.00	 0.00	 0.0	 0.0	 1	    1.04624	    3.39271	 345.0	 8	    1.06000	    0.94000;
	121	 2	 0.00	 0.00	 0.0	 0.0	 1	    1.01975	   11.19412	 24.0	 3	    1.06000	    0.94000;
	122	 1	 51.93	 9.36	 0.0	 0.0	 1	    0.94454	  -20.06209	 161.0	 3	    1.06000	    0.94000;
	123	 1	 165.00	 0.00	 0.0	 0.0	 1	    0.94000	  -20.44756	 161.0	 12	    1.06000	    0.94000;
	124	 1	 -571.00	 90.90	 0.0	 0.0	 1	    0.98944	   -4.80100	 345.0	 12	    1.06000	    0.94000;
	125	 2	 2000.00	 0.00	 0.0	 0.0	 1	    1.02769	   -4.47391	 345.0	 12	    1.06000	    0.94000;
	126	 1	 -467.00	 0.00	 0.0	 0.0	 1	    1.01599	    0.30982	 345.0	 12	    1.06000	    0.94000;
	127	 1	 -52.60	 0.00	 0.0	 0.0	 1	    1.02230	   -3.46023	 345.0	 12	    1.06000	    0.94000;
	128	 1	 0.00	 0.00	 0.0	 0.0	 1	    1.04648	    3.53072	 345.0	 8	    1.06000	    0.94000;
	129	 1	 0.00	 0.00	 0.0	 0.0	 1	    1.04743	    3.28486	 345.0	 8	    1.06000	    0.94000;
	130	 2	 0.00	 0.00	 0.0	 0.0	 1	    1.05892	   12.49058	 22.0	 8	    1.06000	    0.94000;
	131	 2	 0.00	 0.00	 0.0	 0.0	 1	    1.04698	   11.03760	 18.0	 8	    1.06000	    0.94000;
	132	 1	 159.00	 0.00	 0.0	 0.0	 1	    1.04924	    0.44438	 161.0	 12	    1.06000	    0.94000;
	133	 1	 33.06	 6.02	 0.0	 0.0	 1	    1.05712	   -1.72714	 69.0	 3	    1.06000	    0.94000;
	134	 1	 19.18	 3.34	 0.0	 0.0	 1	    1.04438	   -0.21895	 161.0	 3	    1.06000	    0.94000;
	135	 1	 22.03	 4.01	 0.0	 0.0	 1	    1.05377	   -1.80525	 69.0	 3	    1.06000	    0.94000;
	136	 1	 22.03	 4.01	 0.0	 0.0	 1	    1.04678	   -2.13144	 69.0	 3	    1.06000	    0.94000;
	137	 1	 22.03	 4.01	 0.0	 0.0	 1	    1.05069	   -2.06837	 69.0	 3	    1.06000	    0.94000;
	138	 1	 0.00	 0.00	 0.0	 0.0	 1	    1.05301	   -0.92720	 69.0	 3	    1.06000	    0.94000;
	139	 1	 11.09	 2.01	 0.0	 0.0	 1	    1.04786	   -1.70239	 69.0	 3	    1.06000	    0.94000;
	140	 1	 14.92	 2.68	 0.0	 0.0	 1	    1.05016	   -2.00484	 69.0	 3	    1.06000	    0.94000;
	141	 1	 0.00	 0.00	 0.0	 0.0	 1	    1.00842	   -4.10414	 161.0	 3	    1.06000	    0.94000;
	142	 1	 29.75	 5.35	 0.0	 0.0	 1	    1.01756	  -11.76748	 69.0	 3	    1.06000	    0.94000;
	143	 1	 23.14	 4.01	 0.0	 0.0	 1	    1.00306	  -10.26186	 69.0	 3	    1.06000	    0.94000;
	144	 1	 13.59	 2.01	 0.0	 0.0	 1	    1.02640	   -6.57200	 69.0	 3	    1.06000	    0.94000;
	145	 1	 11.89	 2.21	 0.0	 0.0	 1	    1.03094	   -4.47014	 69.0	 3	    1.06000	    0.94000;
	146	 1	 23.43	 4.01	 0.0	 0.0	 1	    1.00723	  -10.81743	 69.0	 3	    1.06000	    0.94000;
	147	 1	 237.68	 42.80	 0.0	 0.0	 1	    1.00533	  -11.20852	 161.0	 3	    1.06000	    0.94000;
	148	 1	 131.80	 24.00	 0.0	 0.0	 1	    1.00754	  -12.40512	 69.0	 3	    1.06000	    0.94000;
	149	 1	 0.00	 0.00	 0.0	 0.0	 1	    1.03485	    5.59827	 161.0	 1	    1.06000	    0.94000;
	150	 1	 5.27	 1.60	 0.0	 0.0	 1	    1.03124	    4.88829	 161.0	 1	    1.06000	    0.94000;
	151	 1	 26.36	 8.00	 0.0	 0.0	 1	    1.01776	    2.35924	 161.0	 1	    1.06000	    0.94000;
	152	 1	 6.00	 0.00	 0.0	 0.0	 1	    1.03915	    3.12699	 161.0	 12	    1.06000	    0.94000;
	153	 1	 4.39	 1.60	 0.0	 0.0	 1	    1.02686	    3.32739	 69.0	 1	    1.06000	    0.94000;
	154	 1	 30.75	 9.60	 0.0	 6.0	 1	    0.98142	   -3.55107	 69.0	 1	    1.06000	    0.94000;
	155	 1	 13.18	 4.00	 0.0	 0.0	 1	    0.99238	   -1.55372	 69.0	 1	    1.06000	    0.94000;
	156	 1	 8.79	 2.40	 0.0	 0.0	 1	    0.98531	   -3.21247	 69.0	 1	    1.06000	    0.94000;
	157	 1	 35.15	 10.40	 0.0	 0.0	 1	    0.98690	   -4.06635	 69.0	 1	    1.06000	    0.94000;
	158	 1	 17.57	 5.60	 0.0	 3.0	 1	    0.97422	   -5.08468	 69.0	 1	    1.06000	    0.94000;
	159	 1	 8.79	 2.40	 0.0	 0.0	 1	    0.97467	   -4.89499	 69.0	 1	    1.06000	    0.94000;
	160	 1	 15.82	 4.80	 0.0	 3.0	 1	    0.97754	   -4.27439	 69.0	 1	    1.06000	    0.94000;
	161	 1	 35.15	 10.40	 0.0	 0.0	 1	    1.01138	    0.80939	 161.0	 1	    1.06000	    0.94000;
	162	 1	 21.97	 6.40	 0.0	 0.0	 1	    1.00752	   -0.16288	 161.0	 1	    1.06000	    0.94000;
];

%% generator data
%	bus	Pg	Qg	Qmax	Qmin	Vg	mBase	status	Pmax	Pmin	Pc1	Pc2	Qc1min	Qc1max	Qc2min	Qc2max	ramp_agc	ramp_10	ramp_30	ramp_q	apf
mpc.gen = [
	6	 891.924	 120.296	 602.0	 -602.0	 0.99791	 100.0	 1	 1203	 0.0	 0.0	 0.0	 0.0	 0.0	 0.0	 0.0	 0.0	 0.0	 0.0	 0.0	 0.0; % NUC
	73	 406.044	 171.448	 267.0	 -234.0	 1.02632	 100.0	 1	 468	 0.0	 0.0	 0.0	 0.0	 0.0	 0.0	 0.0	 0.0	 0.0	 0.0	 0.0	 0.0; % NG
	76	 1246.692	 40.28	 637.0	 -637.0	 0.98629	 100.0	 1	 1274	 0.0	 0.0	 0.0	 0.0	 0.0	 0.0	 0.0	 0.0	 0.0	 0.0	 0.0	 0.0; % COW
	99	 139.857	 54.223	 115.0	 -115.0	 1.00821	 100.0	 1	 229	 0.0	 0.0	 0.0	 0.0	 0.0	 0.0	 0.0	 0.0	 0.0	 0.0	 0.0	 0.0; % NG
	101	 86.893	 40.812	 84.0	 -84.0	 0.99859	 100.0	 1	 167	 0.0	 0.0	 0.0	 0.0	 0.0	 0.0	 0.0	 0.0	 0.0	 0.0	 0.0	 0.0; % NG
	108	 598.641	 40.359	 921.0	 -921.0	 0.94	 100.0	 1	 1842	 0.0	 0.0	 0.0	 0.0	 0.0	 0.0	 0.0	 0.0	 0.0	 0.0	 0.0	 0.0; % COW
	114	 129.664	 75.414	 100.0	 -100.0	 1.06	 100.0	 1	 199	 0.0	 0.0	 0.0	 0.0	 0.0	 0.0	 0.0	 0.0	 0.0	 0.0	 0.0	 0.0; % NG
	118	 164.243	 114.123	 117.6	 -117.6	 1.0244	 100.0	 1	 175	 0.0	 0.0	 0.0	 0.0	 0.0	 0.0	 0.0	 0.0	 0.0	 0.0	 0.0	 0.0; % NG
	121	 701.358	 162.777	 830.0	 -830.0	 1.01975	 100.0	 1	 1660	 0.0	 0.0	 0.0	 0.0	 0.0	 0.0	 0.0	 0.0	 0.0	 0.0	 0.0	 0.0; % COW
	125	 2241.43	 104.682	 1295.0	 -1138.0	 1.02769	 100.0	 1	 2276	 0.0	 0.0	 0.0	 0.0	 0.0	 0.0	 0.0	 0.0	 0.0	 0.0	 0.0	 0.0; % COW
	130	 550.351	 176.629	 323.0	 -323.0	 1.05892	 100.0	 1	 645	 0.0	 0.0	 0.0	 0.0	 0.0	 0.0	 0.0	 0.0	 0.0	 0.0	 0.0	 0.0; % NG
	131	 685.671	 184.27	 390.0	 -390.0	 1.04698	 100.0	 1	 779	 0.0	 0.0	 0.0	 0.0	 0.0	 0.0	 0.0	 0.0	 0.0	 0.0	 0.0	 0.0; % NG
];

%% generator cost data
%	2	startup	shutdown	n	c(n-1)	...	c0
mpc.gencost = [
	2	 0.0	 0.0	 3	   0.000000	   0.201355	   0.000000; % NUC
	2	 0.0	 0.0	 3	   0.000000	   1.287901	   0.000000; % NG
	2	 0.0	 0.0	 3	   0.000000	   0.890382	   0.000000; % COW
	2	 0.0	 0.0	 3	   0.000000	   0.928890	   0.000000; % NG
	2	 0.0	 0.0	 3	   0.000000	   0.823495	   0.000000; % NG
	2	 0.0	 0.0	 3	   0.000000	   1.281748	   0.000000; % COW
	2	 0.0	 0.0	 3	   0.000000	   1.060457	   0.000000; % NG
	2	 0.0	 0.0	 3	   0.000000	   1.353039	   0.000000; % NG
	2	 0.0	 0.0	 3	   0.000000	   0.712217	   0.000000; % COW
	2	 0.0	 0.0	 3	   0.000000	   0.590281	   0.000000; % COW
	2	 0.0	 0.0	 3	   0.000000	   1.109857	   0.000000; % NG
	2	 0.0	 0.0	 3	   0.000000	   0.776444	   0.000000; % NG
];

%% branch data
%	fbus	tbus	r	x	b	rateA	rateB	rateC	ratio	angle	status	angmin	angmax
mpc.branch = [
	1	 2	 0.0035	 0.0321	 0.5438	 613.0	 613.0	 613.0	 0.0	 0.0	 1	 -30.0	 30.0;
	1	 3	 0.0034	 0.0326	 0.7224	 895.0	 895.0	 895.0	 0.0	 0.0	 1	 -30.0	 30.0;
	1	 4	 0.0064	 0.0621	 0.987	 470.0	 470.0	 470.0	 0.0	 0.0	 1	 -30.0	 30.0;
	1	 5	 0.0011	 0.0119	 0.2012	 663.0	 663.0	 663.0	 0.0	 0.0	 1	 -30.0	 30.0;
	1	 6	 0.0	 0.0133	 0.0	 900.0	 2206.0	 2206.0	 1.0519	 0.0	 1	 -30.0	 30.0;
	2	 7	 0.0014	 0.0125	 0.2122	 605.0	 605.0	 605.0	 0.0	 0.0	 1	 -30.0	 30.0;
	2	 13	 0.0046	 0.0417	 0.7058	 610.0	 610.0	 610.0	 0.0	 0.0	 1	 -30.0	 30.0;
	3	 14	 0.2361	 1.0122	 0.0	 29.0	 29.0	 29.0	 0.0	 0.0	 1	 -30.0	 30.0;
	3	 50	 0.0389	 0.1699	 0.0	 169.0	 169.0	 169.0	 0.0	 0.0	 1	 -30.0	 30.0;
	3	 103	 0.1074	 1.8023	 0.0	 17.0	 17.0	 17.0	 0.0	 0.0	 1	 -30.0	 30.0;
	3	 123	 0.2883	 1.6719	 0.0	 18.0	 18.0	 18.0	 0.0	 0.0	 1	 -30.0	 30.0;
	3	 124	 0.014	 0.6483	 0.0	 46.0	 46.0	 46.0	 0.0	 0.0	 1	 -30.0	 30.0;
	3	 125	 0.0084	 0.1139	 0.0	 257.0	 257.0	 257.0	 0.0	 0.0	 1	 -30.0	 30.0;
	4	 112	 0.0059	 0.0568	 0.925	 514.0	 514.0	 514.0	 0.0	 0.0	 1	 -30.0	 30.0;
	4	 115	 0.0	 0.0185	 0.0	 500.0	 1586.0	 1586.0	 1.0	 0.0	 1	 -30.0	 30.0;
	4	 119	 0.0014	 0.0119	 0.205	 591.0	 591.0	 591.0	 0.0	 0.0	 1	 -30.0	 30.0;
	5	 120	 0.0022	 0.0224	 0.3792	 644.0	 644.0	 644.0	 0.0	 0.0	 1	 -30.0	 30.0;
	5	 129	 0.0022	 0.0268	 0.4612	 702.0	 702.0	 702.0	 0.0	 0.0	 1	 -30.0	 30.0;
	5	 131	 0.0	 0.0127	 0.0	 710.0	 2310.0	 2310.0	 1.0249	 0.0	 1	 -30.0	 30.0;
	7	 8	 0.0004	 0.0189	 0.0	 672.0	 1552.0	 1552.0	 0.9751	 0.0	 1	 -30.0	 30.0;
	7	 9	 0.0017	 0.0169	 0.2872	 637.0	 637.0	 637.0	 0.0	 0.0	 1	 -30.0	 30.0;
	8	 10	 0.4591	 1.0703	 0.0	 26.0	 26.0	 26.0	 0.0	 0.0	 1	 -30.0	 30.0;
	8	 12	 0.0106	 0.0574	 0.0	 159.0	 159.0	 159.0	 0.0	 0.0	 1	 -30.0	 30.0;
	8	 13	 0.1274	 0.4784	 0.0	 60.0	 60.0	 60.0	 0.0	 0.0	 1	 -30.0	 30.0;
	8	 14	 0.0473	 0.3956	 0.0	 74.0	 74.0	 74.0	 0.0	 0.0	 1	 -30.0	 30.0;
	8	 15	 0.5035	 1.7433	 0.0	 17.0	 17.0	 17.0	 0.0	 0.0	 1	 -30.0	 30.0;
	8	 132	 0.0252	 0.288	 0.0	 102.0	 102.0	 102.0	 0.0	 0.0	 1	 -30.0	 30.0;
	9	 75	 0.0013	 0.015	 0.2682	 684.0	 684.0	 684.0	 0.0	 0.0	 1	 -30.0	 30.0;
	10	 11	 0.0051	 0.037	 0.0716	 366.0	 366.0	 366.0	 0.0	 0.0	 1	 -30.0	 30.0;
	10	 13	 0.1299	 0.622	 0.0	 47.0	 47.0	 47.0	 0.0	 0.0	 1	 -30.0	 30.0;
	10	 15	 0.1275	 0.7033	 0.0	 42.0	 42.0	 42.0	 0.0	 0.0	 1	 -30.0	 30.0;
	10	 60	 0.2525	 1.2242	 0.0	 24.0	 24.0	 24.0	 0.0	 0.0	 1	 -30.0	 30.0;
	11	 15	 0.0285	 0.1793	 0.3484	 162.0	 162.0	 162.0	 0.0	 0.0	 1	 -30.0	 30.0;
	11	 46	 0.0142	 0.1225	 0.1876	 238.0	 238.0	 238.0	 0.0	 0.0	 1	 -30.0	 30.0;
	11	 58	 0.017	 0.107	 0.2074	 271.0	 271.0	 271.0	 0.0	 0.0	 1	 -30.0	 30.0;
	11	 59	 0.0071	 0.0471	 0.0852	 350.0	 350.0	 350.0	 0.0	 0.0	 1	 -30.0	 30.0;
	12	 2	 0.0008	 0.0377	 0.0	 336.0	 778.0	 778.0	 1.0252	 0.0	 1	 -30.0	 30.0;
	12	 13	 0.1038	 0.3137	 0.0	 89.0	 89.0	 89.0	 0.0	 0.0	 1	 -30.0	 30.0;
	12	 14	 0.1598	 0.6415	 0.0	 45.0	 45.0	 45.0	 0.0	 0.0	 1	 -30.0	 30.0;
	12	 132	 0.4486	 1.5773	 0.0	 18.0	 18.0	 18.0	 0.0	 0.0	 1	 -30.0	 30.0;
	13	 15	 0.044	 0.3227	 0.0	 91.0	 91.0	 91.0	 0.0	 0.0	 1	 -30.0	 30.0;
	13	 62	 0.0098	 0.1221	 0.0	 240.0	 240.0	 240.0	 0.0	 0.0	 1	 -30.0	 30.0;
	14	 72	 0.0107	 0.0828	 0.0	 264.0	 264.0	 264.0	 0.0	 0.0	 1	 -30.0	 30.0;
	14	 113	 0.0063	 0.0382	 0.0	 235.0	 235.0	 235.0	 0.0	 0.0	 1	 -30.0	 30.0;
	14	 132	 0.0057	 0.0374	 0.0	 244.0	 244.0	 244.0	 0.0	 0.0	 1	 -30.0	 30.0;
	15	 58	 0.0115	 0.0732	 0.142	 344.0	 344.0	 344.0	 0.0	 0.0	 1	 -30.0	 30.0;
	15	 60	 0.3907	 1.6753	 0.0	 18.0	 18.0	 18.0	 0.0	 0.0	 1	 -30.0	 30.0;
	15	 62	 0.0084	 0.0588	 0.0	 359.0	 359.0	 359.0	 0.0	 0.0	 1	 -30.0	 30.0;
	15	 63	 0.1704	 1.4555	 0.0	 21.0	 21.0	 21.0	 0.0	 0.0	 1	 -30.0	 30.0;
	16	 17	 0.6017	 1.4373	 0.0	 19.0	 19.0	 19.0	 0.0	 0.0	 1	 -30.0	 30.0;
	16	 18	 0.0297	 0.107	 0.0546	 184.0	 184.0	 184.0	 0.0	 0.0	 1	 -30.0	 30.0;
	16	 27	 0.1574	 0.8871	 0.0	 33.0	 33.0	 33.0	 0.0	 0.0	 1	 -30.0	 30.0;
	16	 126	 0.1053	 0.5132	 0.0	 56.0	 56.0	 56.0	 0.0	 0.0	 1	 -30.0	 30.0;
	16	 127	 0.0958	 0.5276	 0.0	 55.0	 55.0	 55.0	 0.0	 0.0	 1	 -30.0	 30.0;
	17	 18	 0.0213	 0.1013	 0.0642	 209.0	 209.0	 209.0	 0.0	 0.0	 1	 -30.0	 30.0;
	17	 19	 0.2314	 0.7678	 0.0	 37.0	 37.0	 37.0	 0.0	 0.0	 1	 -30.0	 30.0;
	17	 21	 0.0471	 0.2665	 0.0	 109.0	 109.0	 109.0	 0.0	 0.0	 1	 -30.0	 30.0;
	17	 127	 0.0287	 0.2637	 0.0	 111.0	 111.0	 111.0	 0.0	 0.0	 1	 -30.0	 30.0;
	18	 30	 0.0207	 0.1088	 0.052	 220.0	 220.0	 220.0	 0.0	 0.0	 1	 -30.0	 30.0;
	18	 32	 0.0234	 0.122	 0.0582	 219.0	 219.0	 219.0	 0.0	 0.0	 1	 -30.0	 30.0;
	18	 37	 0.0	 0.0456	 0.0	 225.0	 644.0	 644.0	 1.1193	 0.0	 1	 -30.0	 30.0;
	19	 21	 0.3867	 1.9005	 0.0	 16.0	 16.0	 16.0	 0.0	 0.0	 1	 -30.0	 30.0;
	19	 38	 0.0239	 0.125	 0.0596	 219.0	 219.0	 219.0	 0.0	 0.0	 1	 -30.0	 30.0;
	19	 43	 0.0603	 0.2572	 0.0	 112.0	 112.0	 112.0	 0.0	 0.0	 1	 -30.0	 30.0;
	19	 127	 0.1074	 0.6809	 0.0	 43.0	 43.0	 43.0	 0.0	 0.0	 1	 -30.0	 30.0;
	20	 53	 0.0	 0.114	 0.0	 75.0	 258.0	 258.0	 1.0	 0.0	 1	 -30.0	 30.0;
	20	 157	 0.0113	 0.0279	 0.0004	 44.0	 66.0	 66.0	 0.0	 0.0	 1	 -30.0	 30.0;
	21	 22	 0.0312	 0.1629	 0.0778	 177.0	 177.0	 177.0	 0.0	 0.0	 1	 -30.0	 30.0;
	21	 127	 0.0105	 0.6414	 0.0	 46.0	 46.0	 46.0	 0.0	 0.0	 1	 -30.0	 30.0;
	22	 38	 0.014	 0.054	 0.025	 190.0	 190.0	 190.0	 0.0	 0.0	 1	 -30.0	 30.0;
	22	 39	 0.0	 0.0493	 0.0	 225.0	 595.0	 595.0	 1.1081	 0.0	 1	 -30.0	 30.0;
	22	 40	 0.0188	 0.0717	 0.0328	 189.0	 189.0	 189.0	 0.0	 0.0	 1	 -30.0	 30.0;
	22	 41	 0.0172	 0.085	 0.0404	 213.0	 213.0	 213.0	 0.0	 0.0	 1	 -30.0	 30.0;
	23	 24	 0.0174	 0.0511	 0.023	 167.0	 167.0	 167.0	 0.0	 0.0	 1	 -30.0	 30.0;
	23	 60	 0.066	 0.3093	 0.0	 93.0	 93.0	 93.0	 0.0	 0.0	 1	 -30.0	 30.0;
	24	 25	 0.0	 0.034	 0.0	 225.0	 863.0	 863.0	 1.0217	 0.0	 1	 -30.0	 30.0;
	24	 28	 0.0249	 0.0725	 0.0202	 166.0	 166.0	 166.0	 0.0	 0.0	 1	 -30.0	 30.0;
	24	 45	 0.0137	 0.0725	 0.034	 220.0	 220.0	 220.0	 0.0	 0.0	 1	 -30.0	 30.0;
	25	 26	 0.0059	 0.0583	 0.9302	 501.0	 501.0	 501.0	 0.0	 0.0	 1	 -30.0	 30.0;
	25	 27	 0.0044	 0.041	 0.8384	 618.0	 618.0	 618.0	 0.0	 0.0	 1	 -30.0	 30.0;
	26	 74	 0.0063	 0.0607	 0.93	 481.0	 481.0	 481.0	 0.0	 0.0	 1	 -30.0	 30.0;
	26	 75	 0.003	 0.0322	 0.5038	 661.0	 661.0	 661.0	 0.0	 0.0	 1	 -30.0	 30.0;
	26	 76	 0.0	 0.0082	 0.0	 1250.0	 3578.0	 3578.0	 1.04	 0.0	 1	 -30.0	 30.0;
	27	 31	 0.0101	 0.1273	 0.0	 230.0	 230.0	 230.0	 0.0	 0.0	 1	 -30.0	 30.0;
	27	 62	 0.0173	 0.581	 0.0	 51.0	 51.0	 51.0	 0.0	 0.0	 1	 -30.0	 30.0;
	27	 65	 0.0105	 0.2764	 0.0	 107.0	 107.0	 107.0	 0.0	 0.0	 1	 -30.0	 30.0;
	27	 125	 0.035	 1.6845	 0.0	 18.0	 18.0	 18.0	 0.0	 0.0	 1	 -30.0	 30.0;
	27	 126	 0.0022	 0.0225	 0.0	 646.0	 646.0	 646.0	 0.0	 0.0	 1	 -30.0	 30.0;
	27	 127	 0.1506	 1.4355	 0.0	 21.0	 21.0	 21.0	 0.0	 0.0	 1	 -30.0	 30.0;
	28	 29	 0.024	 0.0965	 0.0444	 193.0	 193.0	 193.0	 0.0	 0.0	 1	 -30.0	 30.0;
	29	 30	 0.038	 0.15	 0.0696	 177.0	 190.0	 190.0	 0.0	 0.0	 1	 -30.0	 30.0;
	29	 31	 0.0206	 0.0833	 0.0384	 194.0	 194.0	 194.0	 0.0	 0.0	 1	 -30.0	 30.0;
	30	 32	 0.0249	 0.1005	 0.0458	 194.0	 194.0	 194.0	 0.0	 0.0	 1	 -30.0	 30.0;
	32	 33	 0.0114	 0.0448	 0.0208	 191.0	 191.0	 191.0	 0.0	 0.0	 1	 -30.0	 30.0;
	33	 34	 0.028	 0.114	 0.052	 180.0	 195.0	 195.0	 0.0	 0.0	 1	 -30.0	 30.0;
	33	 35	 0.0216	 0.107	 0.051	 214.0	 214.0	 214.0	 0.0	 0.0	 1	 -30.0	 30.0;
	33	 36	 0.0102	 0.0536	 0.0254	 220.0	 220.0	 220.0	 0.0	 0.0	 1	 -30.0	 30.0;
	34	 40	 0.0397	 0.1517	 0.069	 188.0	 188.0	 188.0	 0.0	 0.0	 1	 -30.0	 30.0;
	34	 77	 0.0235	 0.0896	 0.0408	 189.0	 189.0	 189.0	 0.0	 0.0	 1	 -30.0	 30.0;
	35	 40	 0.0271	 0.1341	 0.0638	 179.0	 213.0	 213.0	 0.0	 0.0	 1	 -30.0	 30.0;
	36	 67	 0.0176	 0.0924	 0.044	 220.0	 220.0	 220.0	 0.0	 0.0	 1	 -30.0	 30.0;
	37	 39	 0.0039	 0.0379	 0.67	 630.0	 630.0	 630.0	 0.0	 0.0	 1	 -30.0	 30.0;
	37	 126	 0.004	 0.0381	 0.67	 624.0	 624.0	 624.0	 0.0	 0.0	 1	 -30.0	 30.0;
	37	 127	 0.004	 0.0403	 0.6832	 641.0	 641.0	 641.0	 0.0	 0.0	 1	 -30.0	 30.0;
	39	 42	 0.002	 0.0186	 0.32	 617.0	 617.0	 617.0	 0.0	 0.0	 1	 -30.0	 30.0;
	40	 81	 0.03	 0.345	 0.0038	 81.0	 85.0	 85.0	 0.0	 0.0	 1	 -30.0	 30.0;
	40	 82	 0.004	 0.019	 0.0108	 209.0	 209.0	 209.0	 0.0	 0.0	 1	 -30.0	 30.0;
	41	 81	 0.037	 0.372	 0.0058	 79.0	 79.0	 79.0	 0.0	 0.0	 1	 -30.0	 30.0;
	41	 83	 0.0052	 0.0256	 0.0124	 213.0	 213.0	 213.0	 0.0	 0.0	 1	 -30.0	 30.0;
	41	 84	 0.0057	 0.058	 0.0292	 301.0	 301.0	 301.0	 0.0	 0.0	 1	 -30.0	 30.0;
	42	 109	 0.0019	 0.0196	 0.333	 648.0	 648.0	 648.0	 0.0	 0.0	 1	 -30.0	 30.0;
	43	 44	 0.0188	 0.0751	 0.0348	 193.0	 193.0	 193.0	 0.0	 0.0	 1	 -30.0	 30.0;
	43	 103	 0.0324	 0.1702	 0.0	 170.0	 170.0	 170.0	 0.0	 0.0	 1	 -30.0	 30.0;
	43	 124	 0.0293	 0.1766	 0.0	 164.0	 164.0	 164.0	 0.0	 0.0	 1	 -30.0	 30.0;
	43	 125	 0.1449	 0.6509	 0.0	 44.0	 44.0	 44.0	 0.0	 0.0	 1	 -30.0	 30.0;
	44	 102	 0.013	 0.05	 0.0236	 180.0	 189.0	 189.0	 0.0	 0.0	 1	 -30.0	 30.0;
	44	 103	 0.0127	 0.051	 0.0244	 180.0	 193.0	 193.0	 0.0	 0.0	 1	 -30.0	 30.0;
	45	 54	 0.0108	 0.057	 0.0272	 220.0	 220.0	 220.0	 0.0	 0.0	 1	 -30.0	 30.0;
	46	 47	 0.031	 0.1378	 0.0622	 177.0	 203.0	 203.0	 0.0	 0.0	 1	 -30.0	 30.0;
	47	 48	 0.0251	 0.1114	 0.0502	 177.0	 203.0	 203.0	 0.0	 0.0	 1	 -30.0	 30.0;
	47	 49	 0.003	 0.012	 0.0054	 193.0	 193.0	 193.0	 0.0	 0.0	 1	 -30.0	 30.0;
	48	 50	 0.0336	 0.166	 0.078	 174.0	 174.0	 174.0	 0.0	 0.0	 1	 -30.0	 30.0;
	48	 51	 0.042	 0.13	 0.057	 171.0	 171.0	 171.0	 0.0	 0.0	 1	 -30.0	 30.0;
	48	 52	 0.054	 0.168	 0.074	 167.0	 167.0	 167.0	 0.0	 0.0	 1	 -30.0	 30.0;
	49	 87	 0.014	 0.068	 0.0266	 423.0	 423.0	 423.0	 0.0	 0.0	 1	 -30.0	 30.0;
	50	 51	 0.03	 0.09	 0.041	 168.0	 168.0	 168.0	 0.0	 0.0	 1	 -30.0	 30.0;
	50	 123	 0.4071	 1.8543	 0.0	 16.0	 16.0	 16.0	 0.0	 0.0	 1	 -30.0	 30.0;
	50	 125	 0.1337	 0.6031	 0.0	 48.0	 48.0	 48.0	 0.0	 0.0	 1	 -30.0	 30.0;
	51	 141	 0.0323	 0.1	 0.0442	 171.0	 171.0	 171.0	 0.0	 0.0	 1	 -30.0	 30.0;
	52	 79	 0.0623	 0.2126	 0.094	 133.0	 133.0	 133.0	 0.0	 0.0	 1	 -30.0	 30.0;
	52	 106	 0.0231	 0.0717	 0.0314	 171.0	 171.0	 171.0	 0.0	 0.0	 1	 -30.0	 30.0;
	52	 116	 0.006	 0.0487	 0.0256	 270.0	 270.0	 270.0	 0.0	 0.0	 1	 -30.0	 30.0;
	52	 117	 0.0117	 0.0493	 0.023	 198.0	 198.0	 198.0	 0.0	 0.0	 1	 -30.0	 30.0;
	52	 118	 0.0	 0.052	 0.0	 200.0	 565.0	 565.0	 1.0429	 0.0	 1	 -30.0	 30.0;
	53	 11	 0.0005	 0.02	 0.0	 375.0	 1467.0	 1467.0	 1.0	 0.0	 1	 -30.0	 30.0;
	53	 54	 0.0275	 0.1961	 0.0956	 149.0	 149.0	 149.0	 0.0	 0.0	 1	 -30.0	 30.0;
	53	 55	 0.0005	 0.0026	 0.0022	 219.0	 219.0	 219.0	 0.0	 0.0	 1	 -30.0	 30.0;
	54	 56	 0.0174	 0.091	 0.043	 219.0	 219.0	 219.0	 0.0	 0.0	 1	 -30.0	 30.0;
	54	 57	 0.025	 0.1237	 0.0588	 213.0	 213.0	 213.0	 0.0	 0.0	 1	 -30.0	 30.0;
	55	 57	 0.0462	 0.1763	 0.0802	 161.0	 161.0	 161.0	 0.0	 0.0	 1	 -30.0	 30.0;
	55	 149	 0.0153	 0.0671	 0.0312	 202.0	 202.0	 202.0	 0.0	 0.0	 1	 -30.0	 30.0;
	55	 162	 0.004	 0.0189	 0.0098	 209.0	 209.0	 209.0	 0.0	 0.0	 1	 -30.0	 30.0;
	56	 67	 0.017	 0.0894	 0.0424	 220.0	 220.0	 220.0	 0.0	 0.0	 1	 -30.0	 30.0;
	57	 80	 0.0272	 0.1037	 0.0472	 180.0	 189.0	 189.0	 0.0	 0.0	 1	 -30.0	 30.0;
	58	 61	 0.0133	 0.1018	 0.1842	 276.0	 286.0	 286.0	 0.0	 0.0	 1	 -30.0	 30.0;
	59	 61	 0.0106	 0.0706	 0.121	 351.0	 351.0	 351.0	 0.0	 0.0	 1	 -30.0	 30.0;
	60	 61	 0.0027	 0.0653	 -0.0022	 100.0	 449.0	 449.0	 1.0252	 0.0	 1	 -30.0	 30.0;
	60	 61	 0.002	 0.0393	 0.0	 200.0	 746.0	 746.0	 1.0252	 0.0	 1	 -30.0	 30.0;
	60	 62	 0.3674	 0.964	 0.0	 29.0	 29.0	 29.0	 0.0	 0.0	 1	 -30.0	 30.0;
	60	 65	 0.1041	 0.4144	 0.0	 69.0	 69.0	 69.0	 0.0	 0.0	 1	 -30.0	 30.0;
	60	 126	 0.5367	 1.8295	 0.0	 16.0	 16.0	 16.0	 0.0	 0.0	 1	 -30.0	 30.0;
	61	 62	 0.0296	 0.2275	 0.3996	 128.0	 128.0	 128.0	 0.0	 0.0	 1	 -30.0	 30.0;
	61	 63	 0.0043	 0.0422	 0.0764	 345.0	 422.0	 422.0	 0.0	 0.0	 1	 -30.0	 30.0;
	62	 63	 0.0158	 0.1702	 0.0	 172.0	 172.0	 172.0	 0.0	 0.0	 1	 -30.0	 30.0;
	62	 65	 0.004	 0.074	 0.0	 396.0	 396.0	 396.0	 0.0	 0.0	 1	 -30.0	 30.0;
	62	 126	 0.0044	 0.2969	 0.0	 99.0	 99.0	 99.0	 0.0	 0.0	 1	 -30.0	 30.0;
	63	 65	 0.2409	 1.96	 0.0	 15.0	 15.0	 15.0	 0.0	 0.0	 1	 -30.0	 30.0;
	64	 65	 0.005	 0.0571	 0.9098	 512.0	 512.0	 512.0	 0.0	 0.0	 1	 -30.0	 30.0;
	64	 66	 0.0033	 0.0381	 0.6066	 684.0	 684.0	 684.0	 0.0	 0.0	 1	 -30.0	 30.0;
	65	 126	 0.0031	 0.1536	 0.0	 191.0	 191.0	 191.0	 0.0	 0.0	 1	 -30.0	 30.0;
	66	 11	 0.0	 0.0118	 0.0	 500.0	 2486.0	 2486.0	 1.0	 0.0	 1	 -30.0	 30.0;
	67	 68	 0.0193	 0.1013	 0.0482	 220.0	 220.0	 220.0	 0.0	 0.0	 1	 -30.0	 30.0;
	68	 69	 0.0068	 0.0353	 0.0168	 218.0	 218.0	 218.0	 0.0	 0.0	 1	 -30.0	 30.0;
	69	 77	 0.0098	 0.0374	 0.017	 189.0	 189.0	 189.0	 0.0	 0.0	 1	 -30.0	 30.0;
	69	 78	 0.0114	 0.0434	 0.0196	 180.0	 188.0	 188.0	 0.0	 0.0	 1	 -30.0	 30.0;
	69	 79	 0.0052	 0.0433	 0.022	 273.0	 273.0	 273.0	 0.0	 0.0	 1	 -30.0	 30.0;
	70	 73	 0.0	 0.0197	 0.0	 495.0	 1489.0	 1489.0	 1.0398	 0.0	 1	 -30.0	 30.0;
	70	 149	 0.0002	 0.0018	 0.001	 284.0	 284.0	 284.0	 0.0	 0.0	 1	 -30.0	 30.0;
	70	 149	 0.0002	 0.0018	 0.001	 284.0	 284.0	 284.0	 0.0	 0.0	 1	 -30.0	 30.0;
	71	 85	 0.0304	 0.1506	 0.0716	 191.0	 191.0	 191.0	 0.0	 0.0	 1	 -30.0	 30.0;
	71	 150	 0.0196	 0.097	 0.0462	 213.0	 213.0	 213.0	 0.0	 0.0	 1	 -30.0	 30.0;
	72	 113	 0.0022	 0.013	 0.0	 232.0	 232.0	 232.0	 0.0	 0.0	 1	 -30.0	 30.0;
	72	 132	 0.0028	 0.0168	 0.0	 234.0	 234.0	 234.0	 0.0	 0.0	 1	 -30.0	 30.0;
	72	 152	 0.0385	 0.18	 0.0	 160.0	 160.0	 160.0	 0.0	 0.0	 1	 -30.0	 30.0;
	74	 119	 0.0031	 0.031	 0.4822	 639.0	 639.0	 639.0	 0.0	 0.0	 1	 -30.0	 30.0;
	75	 128	 0.0008	 0.0087	 0.166	 665.0	 665.0	 665.0	 0.0	 0.0	 1	 -30.0	 30.0;
	75	 130	 0.0004	 0.0242	 0.0	 578.0	 1212.0	 1212.0	 1.0249	 0.0	 1	 -30.0	 30.0;
	78	 79	 0.0051	 0.0336	 0.0182	 245.0	 245.0	 245.0	 0.0	 0.0	 1	 -30.0	 30.0;
	78	 80	 0.0244	 0.093	 0.0422	 180.0	 189.0	 189.0	 0.0	 0.0	 1	 -30.0	 30.0;
	79	 74	 0.0	 0.018	 0.0	 500.0	 1630.0	 1630.0	 1.0248	 0.0	 1	 -30.0	 30.0;
	82	 83	 0.0053	 0.0249	 0.013	 208.0	 208.0	 208.0	 0.0	 0.0	 1	 -30.0	 30.0;
	84	 93	 0.0125	 0.0826	 0.0414	 245.0	 245.0	 245.0	 0.0	 0.0	 1	 -30.0	 30.0;
	85	 86	 0.0211	 0.1046	 0.0498	 214.0	 214.0	 214.0	 0.0	 0.0	 1	 -30.0	 30.0;
	86	 87	 0.028	 0.112	 0.0538	 255.0	 255.0	 255.0	 0.0	 0.0	 1	 -30.0	 30.0;
	86	 88	 0.044	 0.228	 0.109	 127.0	 127.0	 127.0	 0.0	 0.0	 1	 -30.0	 30.0;
	88	 96	 0.074	 0.25	 0.0142	 48.0	 113.0	 113.0	 0.0	 0.0	 1	 -30.0	 30.0;
	88	 106	 0.0079	 0.0468	 0.0232	 173.0	 619.0	 619.0	 0.0	 0.0	 1	 -30.0	 30.0;
	89	 86	 0.0	 0.057	 0.0	 90.0	 515.0	 515.0	 1.0252	 0.0	 1	 -30.0	 30.0;
	89	 90	 0.069	 0.134	 0.014	 69.0	 98.0	 98.0	 0.0	 0.0	 1	 -30.0	 30.0;
	90	 96	 0.1837	 0.359	 0.037	 73.0	 73.0	 73.0	 0.0	 0.0	 1	 -30.0	 30.0;
	91	 92	 0.0156	 0.0819	 0.0376	 220.0	 220.0	 220.0	 0.0	 0.0	 1	 -30.0	 30.0;
	91	 93	 0.0143	 0.0895	 0.045	 239.0	 239.0	 239.0	 0.0	 0.0	 1	 -30.0	 30.0;
	91	 94	 0.0145	 0.0957	 0.048	 245.0	 245.0	 245.0	 0.0	 0.0	 1	 -30.0	 30.0;
	92	 102	 0.015	 0.061	 0.0292	 194.0	 194.0	 194.0	 0.0	 0.0	 1	 -30.0	 30.0;
	93	 42	 0.0	 0.026	 0.0	 400.0	 1129.0	 1129.0	 1.0248	 0.0	 1	 -30.0	 30.0;
	93	 108	 0.0	 0.0154	 0.0	 600.0	 1905.0	 1905.0	 1.0503	 0.0	 1	 -30.0	 30.0;
	94	 103	 0.0227	 0.1333	 0.066	 217.0	 217.0	 217.0	 0.0	 0.0	 1	 -30.0	 30.0;
	94	 107	 0.0613	 0.1891	 0.0836	 148.0	 148.0	 148.0	 0.0	 0.0	 1	 -30.0	 30.0;
	94	 109	 0.0	 0.035	 0.0	 300.0	 839.0	 839.0	 1.0248	 0.0	 1	 -30.0	 30.0;
	95	 91	 0.0054	 0.0458	 -0.0036	 250.0	 637.0	 637.0	 1.02	 0.0	 1	 -30.0	 30.0;
...
];

% INFO    : === Translation Options ===
% INFO    : Load Model:                  from file ./nesta_case162_ieee_dtc.m.api.sol
% INFO    : Gen Active Capacity Model:   stat
% INFO    : Gen Reactive Capacity Model: al50ag
% INFO    : Gen Active Cost Model:       stat
% INFO    : 
% INFO    : === Load Replacement Notes ===
% INFO    : Bus 1	: Pd=0.0, Qd=0.0 -> Pd=0.00, Qd=0.00
% INFO    : Bus 2	: Pd=0.0, Qd=0.0 -> Pd=0.00, Qd=0.00
% INFO    : Bus 3	: Pd=370.0, Qd=96.9 -> Pd=406.38, Qd=96.90
% INFO    : Bus 4	: Pd=0.0, Qd=0.0 -> Pd=0.00, Qd=0.00
% INFO    : Bus 5	: Pd=0.0, Qd=0.0 -> Pd=0.00, Qd=0.00
% INFO    : Bus 6	: Pd=0.0, Qd=0.0 -> Pd=0.00, Qd=0.00
% INFO    : Bus 7	: Pd=0.0, Qd=0.0 -> Pd=0.00, Qd=0.00
% INFO    : Bus 8	: Pd=398.0, Qd=0.0 -> Pd=398.00, Qd=0.00
% INFO    : Bus 9	: Pd=0.0, Qd=0.0 -> Pd=0.00, Qd=0.00
% INFO    : Bus 10	: Pd=226.0, Qd=0.0 -> Pd=226.00, Qd=0.00
% INFO    : Bus 11	: Pd=0.0, Qd=0.0 -> Pd=0.00, Qd=0.00
% INFO    : Bus 12	: Pd=193.0, Qd=0.0 -> Pd=193.00, Qd=0.00
% INFO    : Bus 13	: Pd=204.0, Qd=0.0 -> Pd=204.00, Qd=0.00
% INFO    : Bus 14	: Pd=381.0, Qd=0.0 -> Pd=381.00, Qd=0.00
% INFO    : Bus 15	: Pd=-80.0, Qd=0.0 -> Pd=-80.00, Qd=0.00
% INFO    : Bus 16	: Pd=-54.2, Qd=0.0 -> Pd=-54.20, Qd=0.00
% INFO    : Bus 17	: Pd=-116.5, Qd=0.0 -> Pd=-116.50, Qd=0.00
% INFO    : Bus 18	: Pd=34.4, Qd=11.67 -> Pd=37.78, Qd=11.67
% INFO    : Bus 19	: Pd=64.4, Qd=0.0 -> Pd=64.40, Qd=0.00
% INFO    : Bus 20	: Pd=37.9, Qd=12.5 -> Pd=41.63, Qd=12.50
% INFO    : Bus 21	: Pd=-69.8, Qd=0.0 -> Pd=-69.80, Qd=0.00
% INFO    : Bus 22	: Pd=17.39, Qd=5.27 -> Pd=19.10, Qd=5.27
% INFO    : Bus 23	: Pd=63.5, Qd=0.0 -> Pd=63.50, Qd=0.00
% INFO    : Bus 24	: Pd=0.0, Qd=0.0 -> Pd=0.00, Qd=0.00
% INFO    : Bus 25	: Pd=0.0, Qd=0.0 -> Pd=0.00, Qd=0.00
% INFO    : Bus 26	: Pd=0.0, Qd=0.0 -> Pd=0.00, Qd=0.00
% INFO    : Bus 27	: Pd=324.0, Qd=57.9 -> Pd=355.86, Qd=57.90
% INFO    : Bus 28	: Pd=38.47, Qd=13.17 -> Pd=42.25, Qd=13.17
% INFO    : Bus 29	: Pd=28.31, Qd=9.03 -> Pd=31.09, Qd=9.03
% INFO    : Bus 30	: Pd=101.2, Qd=32.52 -> Pd=111.15, Qd=32.52
% INFO    : Bus 31	: Pd=72.5, Qd=0.0 -> Pd=72.50, Qd=0.00
% INFO    : Bus 32	: Pd=52.7, Qd=15.06 -> Pd=57.88, Qd=15.06
% INFO    : Bus 33	: Pd=45.17, Qd=15.06 -> Pd=49.61, Qd=15.06
% INFO    : Bus 34	: Pd=14.18, Qd=5.25 -> Pd=15.57, Qd=5.25
% INFO    : Bus 35	: Pd=54.48, Qd=14.63 -> Pd=59.84, Qd=14.63
% INFO    : Bus 36	: Pd=31.96, Qd=8.68 -> Pd=35.10, Qd=8.68
% INFO    : Bus 37	: Pd=0.0, Qd=0.0 -> Pd=0.00, Qd=0.00
% INFO    : Bus 38	: Pd=14.76, Qd=4.08 -> Pd=16.21, Qd=4.08
% INFO    : Bus 39	: Pd=0.0, Qd=0.0 -> Pd=0.00, Qd=0.00
% INFO    : Bus 40	: Pd=52.88, Qd=17.6 -> Pd=58.08, Qd=17.60
% INFO    : Bus 41	: Pd=39.2, Qd=12.8 -> Pd=43.05, Qd=12.80
% INFO    : Bus 42	: Pd=0.0, Qd=0.0 -> Pd=0.00, Qd=0.00
% INFO    : Bus 43	: Pd=41.5, Qd=0.0 -> Pd=41.50, Qd=0.00
% INFO    : Bus 44	: Pd=16.32, Qd=3.71 -> Pd=17.92, Qd=3.71
% INFO    : Bus 45	: Pd=20.02, Qd=5.41 -> Pd=21.99, Qd=5.41
% INFO    : Bus 46	: Pd=65.31, Qd=22.3 -> Pd=71.73, Qd=22.30
% INFO    : Bus 47	: Pd=4.82, Qd=1.56 -> Pd=5.29, Qd=1.56
% INFO    : Bus 48	: Pd=33.76, Qd=22.86 -> Pd=37.08, Qd=22.86
% INFO    : Bus 49	: Pd=6.82, Qd=1.78 -> Pd=7.49, Qd=1.78
% INFO    : Bus 50	: Pd=99.7, Qd=0.0 -> Pd=99.70, Qd=0.00
% INFO    : Bus 51	: Pd=0.0, Qd=0.0 -> Pd=0.00, Qd=0.00
% INFO    : Bus 52	: Pd=218.2, Qd=42.8 -> Pd=239.65, Qd=42.80
% INFO    : Bus 53	: Pd=0.0, Qd=0.0 -> Pd=0.00, Qd=0.00
% INFO    : Bus 54	: Pd=70.34, Qd=29.57 -> Pd=77.26, Qd=29.57
% INFO    : Bus 55	: Pd=0.0, Qd=0.0 -> Pd=0.00, Qd=0.00
% INFO    : Bus 56	: Pd=25.29, Qd=7.26 -> Pd=27.78, Qd=7.26
% INFO    : Bus 57	: Pd=48.48, Qd=15.61 -> Pd=53.25, Qd=15.61
% INFO    : Bus 58	: Pd=0.0, Qd=0.0 -> Pd=0.00, Qd=0.00
% INFO    : Bus 59	: Pd=84.43, Qd=27.05 -> Pd=92.73, Qd=27.05
% INFO    : Bus 60	: Pd=244.0, Qd=0.0 -> Pd=244.00, Qd=0.00
% INFO    : Bus 61	: Pd=0.0, Qd=0.0 -> Pd=0.00, Qd=0.00
% INFO    : Bus 62	: Pd=-865.6, Qd=0.0 -> Pd=-865.60, Qd=0.00
% INFO    : Bus 63	: Pd=59.1, Qd=0.0 -> Pd=59.10, Qd=0.00
% INFO    : Bus 64	: Pd=0.0, Qd=0.0 -> Pd=0.00, Qd=0.00
% INFO    : Bus 65	: Pd=-26.3, Qd=0.0 -> Pd=-26.30, Qd=0.00
% INFO    : Bus 66	: Pd=0.0, Qd=0.0 -> Pd=0.00, Qd=0.00
% INFO    : Bus 67	: Pd=22.54, Qd=7.03 -> Pd=24.76, Qd=7.03
% INFO    : Bus 68	: Pd=40.42, Qd=12.68 -> Pd=44.39, Qd=12.68
% INFO    : Bus 69	: Pd=0.0, Qd=0.0 -> Pd=0.00, Qd=0.00
% INFO    : Bus 70	: Pd=0.0, Qd=0.0 -> Pd=0.00, Qd=0.00
% INFO    : Bus 71	: Pd=29.87, Qd=11.93 -> Pd=32.81, Qd=11.93
% INFO    : Bus 72	: Pd=427.0, Qd=0.0 -> Pd=427.00, Qd=0.00
% INFO    : Bus 73	: Pd=0.0, Qd=0.0 -> Pd=0.00, Qd=0.00
% INFO    : Bus 74	: Pd=0.0, Qd=0.0 -> Pd=0.00, Qd=0.00
% INFO    : Bus 75	: Pd=0.0, Qd=0.0 -> Pd=0.00, Qd=0.00
% INFO    : Bus 76	: Pd=0.0, Qd=0.0 -> Pd=0.00, Qd=0.00
% INFO    : Bus 77	: Pd=26.41, Qd=8.78 -> Pd=29.01, Qd=8.78
% INFO    : Bus 78	: Pd=79.12, Qd=0.0 -> Pd=79.12, Qd=0.00
% INFO    : Bus 79	: Pd=0.0, Qd=0.0 -> Pd=0.00, Qd=0.00
% INFO    : Bus 80	: Pd=15.76, Qd=5.25 -> Pd=17.31, Qd=5.25
% INFO    : Bus 81	: Pd=50.88, Qd=16.8 -> Pd=55.88, Qd=16.80
% INFO    : Bus 82	: Pd=62.28, Qd=20.26 -> Pd=68.40, Qd=20.26
% INFO    : Bus 83	: Pd=0.0, Qd=0.0 -> Pd=0.00, Qd=0.00
% INFO    : Bus 84	: Pd=37.9, Qd=9.49 -> Pd=41.63, Qd=9.49
% INFO    : Bus 85	: Pd=40.52, Qd=11.26 -> Pd=44.50, Qd=11.26
% INFO    : Bus 86	: Pd=50.73, Qd=13.35 -> Pd=55.72, Qd=13.35
% INFO    : Bus 87	: Pd=16.91, Qd=4.23 -> Pd=18.57, Qd=4.23
% INFO    : Bus 88	: Pd=60.6, Qd=4.44 -> Pd=66.56, Qd=4.44
% INFO    : Bus 89	: Pd=0.0, Qd=0.0 -> Pd=0.00, Qd=0.00
% INFO    : Bus 90	: Pd=50.21, Qd=16.76 -> Pd=55.15, Qd=16.76
% INFO    : Bus 91	: Pd=51.24, Qd=12.83 -> Pd=56.28, Qd=12.83
% INFO    : Bus 92	: Pd=36.12, Qd=9.05 -> Pd=39.67, Qd=9.05
% INFO    : Bus 93	: Pd=103.8, Qd=34.56 -> Pd=114.01, Qd=34.56
% INFO    : Bus 94	: Pd=164.0, Qd=6.49 -> Pd=180.12, Qd=6.49
% INFO    : Bus 95	: Pd=117.2, Qd=39.01 -> Pd=128.72, Qd=39.01
% INFO    : Bus 96	: Pd=119.2, Qd=0.0 -> Pd=119.20, Qd=0.00
% INFO    : Bus 97	: Pd=22.84, Qd=5.71 -> Pd=25.09, Qd=5.71
% INFO    : Bus 98	: Pd=151.1, Qd=50.35 -> Pd=165.96, Qd=50.35
% INFO    : Bus 99	: Pd=0.0, Qd=0.0 -> Pd=0.00, Qd=0.00
% INFO    : Bus 100	: Pd=23.21, Qd=6.9 -> Pd=25.49, Qd=6.90
% INFO    : Bus 101	: Pd=0.0, Qd=0.0 -> Pd=0.00, Qd=0.00
% INFO    : Bus 102	: Pd=16.54, Qd=4.08 -> Pd=18.17, Qd=4.08
% INFO    : Bus 103	: Pd=322.0, Qd=0.0 -> Pd=322.00, Qd=0.00
% INFO    : Bus 104	: Pd=31.52, Qd=10.46 -> Pd=34.62, Qd=10.46
% INFO    : Bus 105	: Pd=24.84, Qd=6.23 -> Pd=27.28, Qd=6.23
% INFO    : Bus 106	: Pd=0.0, Qd=0.0 -> Pd=0.00, Qd=0.00
% INFO    : Bus 107	: Pd=35.41, Qd=5.41 -> Pd=38.89, Qd=5.41
% INFO    : Bus 108	: Pd=0.0, Qd=0.0 -> Pd=0.00, Qd=0.00
% INFO    : Bus 109	: Pd=0.0, Qd=0.0 -> Pd=0.00, Qd=0.00
% INFO    : Bus 110	: Pd=0.0, Qd=0.0 -> Pd=0.00, Qd=0.00
% INFO    : Bus 111	: Pd=65.41, Qd=16.72 -> Pd=71.84, Qd=16.72
% INFO    : Bus 112	: Pd=0.0, Qd=0.0 -> Pd=0.00, Qd=0.00
% INFO    : Bus 113	: Pd=32.7, Qd=0.0 -> Pd=32.70, Qd=0.00
% INFO    : Bus 114	: Pd=0.0, Qd=0.0 -> Pd=0.00, Qd=0.00
% INFO    : Bus 115	: Pd=17.32, Qd=3.34 -> Pd=19.02, Qd=3.34
% INFO    : Bus 116	: Pd=56.08, Qd=11.2 -> Pd=61.59, Qd=11.20
% INFO    : Bus 117	: Pd=101.9, Qd=20.06 -> Pd=111.92, Qd=20.06
% INFO    : Bus 118	: Pd=0.0, Qd=0.0 -> Pd=0.00, Qd=0.00
% INFO    : Bus 119	: Pd=0.0, Qd=0.0 -> Pd=0.00, Qd=0.00
% INFO    : Bus 120	: Pd=0.0, Qd=0.0 -> Pd=0.00, Qd=0.00
% INFO    : Bus 121	: Pd=0.0, Qd=0.0 -> Pd=0.00, Qd=0.00
% INFO    : Bus 122	: Pd=47.28, Qd=9.36 -> Pd=51.93, Qd=9.36
% INFO    : Bus 123	: Pd=165.0, Qd=0.0 -> Pd=165.00, Qd=0.00
% INFO    : Bus 124	: Pd=-571.0, Qd=90.9 -> Pd=-571.00, Qd=90.90
% INFO    : Bus 125	: Pd=2000.0, Qd=0.0 -> Pd=2000.00, Qd=0.00
% INFO    : Bus 126	: Pd=-467.0, Qd=0.0 -> Pd=-467.00, Qd=0.00
% INFO    : Bus 127	: Pd=-52.6, Qd=0.0 -> Pd=-52.60, Qd=0.00
% INFO    : Bus 128	: Pd=0.0, Qd=0.0 -> Pd=0.00, Qd=0.00
% INFO    : Bus 129	: Pd=0.0, Qd=0.0 -> Pd=0.00, Qd=0.00
% INFO    : Bus 130	: Pd=0.0, Qd=0.0 -> Pd=0.00, Qd=0.00
% INFO    : Bus 131	: Pd=0.0, Qd=0.0 -> Pd=0.00, Qd=0.00
% INFO    : Bus 132	: Pd=159.0, Qd=0.0 -> Pd=159.00, Qd=0.00
% INFO    : Bus 133	: Pd=30.1, Qd=6.02 -> Pd=33.06, Qd=6.02
% INFO    : Bus 134	: Pd=17.46, Qd=3.34 -> Pd=19.18, Qd=3.34
% INFO    : Bus 135	: Pd=20.06, Qd=4.01 -> Pd=22.03, Qd=4.01
% INFO    : Bus 136	: Pd=20.06, Qd=4.01 -> Pd=22.03, Qd=4.01
% INFO    : Bus 137	: Pd=20.06, Qd=4.01 -> Pd=22.03, Qd=4.01
% INFO    : Bus 138	: Pd=0.0, Qd=0.0 -> Pd=0.00, Qd=0.00
% INFO    : Bus 139	: Pd=10.1, Qd=2.01 -> Pd=11.09, Qd=2.01
% INFO    : Bus 140	: Pd=13.58, Qd=2.68 -> Pd=14.92, Qd=2.68
% INFO    : Bus 141	: Pd=0.0, Qd=0.0 -> Pd=0.00, Qd=0.00
% INFO    : Bus 142	: Pd=27.09, Qd=5.35 -> Pd=29.75, Qd=5.35
% INFO    : Bus 143	: Pd=21.07, Qd=4.01 -> Pd=23.14, Qd=4.01
% INFO    : Bus 144	: Pd=12.37, Qd=2.01 -> Pd=13.59, Qd=2.01
% INFO    : Bus 145	: Pd=10.83, Qd=2.21 -> Pd=11.89, Qd=2.21
% INFO    : Bus 146	: Pd=21.33, Qd=4.01 -> Pd=23.43, Qd=4.01
% INFO    : Bus 147	: Pd=216.4, Qd=42.8 -> Pd=237.68, Qd=42.80
% INFO    : Bus 148	: Pd=120.0, Qd=24.0 -> Pd=131.80, Qd=24.00
% INFO    : Bus 149	: Pd=0.0, Qd=0.0 -> Pd=0.00, Qd=0.00
% INFO    : Bus 150	: Pd=4.8, Qd=1.6 -> Pd=5.27, Qd=1.60
% INFO    : Bus 151	: Pd=24.0, Qd=8.0 -> Pd=26.36, Qd=8.00
% INFO    : Bus 152	: Pd=6.0, Qd=0.0 -> Pd=6.00, Qd=0.00
% INFO    : Bus 153	: Pd=4.0, Qd=1.6 -> Pd=4.39, Qd=1.60
% INFO    : Bus 154	: Pd=28.0, Qd=9.6 -> Pd=30.75, Qd=9.60
% INFO    : Bus 155	: Pd=12.0, Qd=4.0 -> Pd=13.18, Qd=4.00
% INFO    : Bus 156	: Pd=8.0, Qd=2.4 -> Pd=8.79, Qd=2.40
% INFO    : Bus 157	: Pd=32.0, Qd=10.4 -> Pd=35.15, Qd=10.40
% INFO    : Bus 158	: Pd=16.0, Qd=5.6 -> Pd=17.57, Qd=5.60
% INFO    : Bus 159	: Pd=8.0, Qd=2.4 -> Pd=8.79, Qd=2.40
% INFO    : Bus 160	: Pd=14.4, Qd=4.8 -> Pd=15.82, Qd=4.80
% INFO    : Bus 161	: Pd=32.0, Qd=10.4 -> Pd=35.15, Qd=10.40
% INFO    : Bus 162	: Pd=20.0, Qd=6.4 -> Pd=21.97, Qd=6.40
% INFO    : 
% INFO    : === Generator Setpoint Replacement Notes ===
% INFO    : Gen at bus 6	: Pg=896.341, Qg=81.074 -> Pg=874.0, Qg=212.0
% INFO    : Gen at bus 73	: Pg=0.0, Qg=36.12 -> Pg=400.0, Qg=166.0
% INFO    : Gen at bus 76	: Pg=1244.016, Qg=15.937 -> Pg=1248.0, Qg=66.0
% INFO    : Gen at bus 99	: Pg=139.67, Qg=54.702 -> Pg=143.0, Qg=47.0
% INFO    : Gen at bus 101	: Pg=87.898, Qg=38.6 -> Pg=82.0, Qg=51.0
% INFO    : Gen at bus 108	: Pg=598.998, Qg=34.661 -> Pg=598.0, Qg=44.0
% INFO    : Gen at bus 114	: Pg=146.325, Qg=33.0 -> Pg=143.0, Qg=46.0
% INFO    : Gen at bus 118	: Pg=175.997, Qg=95.0 -> Pg=175.0, Qg=98.0
% INFO    : Gen at bus 121	: Pg=690.204, Qg=204.985 -> Pg=693.0, Qg=194.0
% INFO    : Gen at bus 125	: Pg=2279.694, Qg=89.995 -> Pg=2233.0, Qg=112.0
% INFO    : Gen at bus 130	: Pg=562.859, Qg=131.428 -> Pg=571.0, Qg=91.0
% INFO    : Gen at bus 131	: Pg=580.0, Qg=269.995 -> Pg=690.0, Qg=169.0
% INFO    : 
% INFO    : === Generator Reactive Capacity Atleast Setpoint Value Notes ===
% INFO    : Gen at bus 6	: Qg 212.0, Qmin -200.0, Qmax 400.0 -> Qmin -254.4, Qmax 400.0
% INFO    : Gen at bus 73	: Qg 166.0, Qmin -72.0, Qmax 267.0 -> Qmin -199.2, Qmax 267.0
% INFO    : Gen at bus 101	: Qg 51.0, Qmin -24.4, Qmax 38.6 -> Qmin -61.2, Qmax 61.2
% INFO    : Gen at bus 114	: Qg 46.0, Qmin -25.0, Qmax 33.0 -> Qmin -55.2, Qmax 55.2
% INFO    : Gen at bus 118	: Qg 98.0, Qmin -44.0, Qmax 95.0 -> Qmin -117.6, Qmax 117.6
% INFO    : Gen at bus 121	: Qg 194.0, Qmin -120.0, Qmax 250.0 -> Qmin -232.8, Qmax 250.0
% INFO    : 
% INFO    : === Generator Classification Notes ===
% INFO    : NUC    1   -    11.13
% INFO    : COW    4   -    60.79
% INFO    : NG     7   -    28.08
% INFO    : 
% INFO    : === Generator Active Capacity Stat Model Notes ===
% INFO    : Gen at bus 6 - NUC	: Pg=874.0, Pmax=1217.0 -> Pmax=1203   samples: 1
% INFO    : Gen at bus 73 - NG	: Pg=400.0, Pmax=566.0 -> Pmax=468   samples: 14
% INFO    : Gen at bus 76 - COW	: Pg=1248.0, Pmax=1282.0 -> Pmax=1274   samples: 8
% INFO    : Gen at bus 99 - NG	: Pg=143.0, Pmax=186.0 -> Pmax=229   samples: 7
% INFO    : Gen at bus 101 - NG	: Pg=82.0, Pmax=180.0 -> Pmax=167   samples: 8
% INFO    : Gen at bus 108 - COW	: Pg=598.0, Pmax=1151.0 -> Pmax=1842   samples: 11
% INFO    : Gen at bus 114 - NG	: Pg=143.0, Pmax=148.0 -> Pmax=199   samples: 3
% INFO    : Gen at bus 118 - NG	: Pg=175.0, Pmax=189.0 -> Pmax=175   samples: 24
% INFO    : Gen at bus 121 - COW	: Pg=693.0, Pmax=1005.0 -> Pmax=1660   samples: 1
% INFO    : Gen at bus 125 - COW	: Pg=2233.0, Pmax=2590.0 -> Pmax=2276   samples: 12
% WARNING : Failed to find a generator capacity within (571.0-2855.0) after 100 samples, using percent increase model
% INFO    : Gen at bus 130 - NG	: Pg=571.0, Pmax=591.0 -> Pmax=645   samples: 100
% WARNING : Failed to find a generator capacity within (690.0-3450.0) after 100 samples, using percent increase model
% INFO    : Gen at bus 131 - NG	: Pg=690.0, Pmax=580.0 -> Pmax=779   samples: 100
% INFO    : 
% INFO    : === Generator Active Capacity LB Model Notes ===
% INFO    : 
% INFO    : === Generator Reactive Capacity Atleast Max 50 Percent Active Model Notes ===
% INFO    : Gen at bus 6 - NUC	: Pmax 1203.0, Qmin -254.4, Qmax 400.0 -> Qmin -602.0, Qmax 602.0
% INFO    : Gen at bus 73 - NG	: Pmax 468.0, Qmin -199.2, Qmax 267.0 -> Qmin -234.0, Qmax 267.0
% INFO    : Gen at bus 76 - COW	: Pmax 1274.0, Qmin -170.0, Qmax 605.0 -> Qmin -637.0, Qmax 637.0
% INFO    : Gen at bus 99 - NG	: Pmax 229.0, Qmin -60.6, Qmax 75.6 -> Qmin -115.0, Qmax 115.0
% INFO    : Gen at bus 101 - NG	: Pmax 167.0, Qmin -61.2, Qmax 61.2 -> Qmin -84.0, Qmax 84.0
% INFO    : Gen at bus 108 - COW	: Pmax 1842.0, Qmin -576.0, Qmax 576.0 -> Qmin -921.0, Qmax 921.0
% INFO    : Gen at bus 114 - NG	: Pmax 199.0, Qmin -55.2, Qmax 55.2 -> Qmin -100.0, Qmax 100.0
% INFO    : Gen at bus 121 - COW	: Pmax 1660.0, Qmin -232.8, Qmax 250.0 -> Qmin -830.0, Qmax 830.0
% INFO    : Gen at bus 125 - COW	: Pmax 2276.0, Qmin -1099.0, Qmax 1295.0 -> Qmin -1138.0, Qmax 1295.0
% INFO    : Gen at bus 130 - NG	: Pmax 645.0, Qmin -144.0, Qmax 288.0 -> Qmin -323.0, Qmax 323.0
% INFO    : Gen at bus 131 - NG	: Pmax 779.0, Qmin -265.0, Qmax 290.0 -> Qmin -390.0, Qmax 390.0
% INFO    : 
% INFO    : === Generator Active Cost Stat Model Notes ===
% INFO    : Updated Generator Cost: NUC - 0.0 0.207675 0.0 -> 0 0.201355018459 0
% INFO    : Updated Generator Cost: NG - 0.0 1.12426 0.0 -> 0 1.28790057201 0
% INFO    : Updated Generator Cost: COW - 0.0 0.245174 0.0 -> 0 0.890382335899 0
% INFO    : Updated Generator Cost: NG - 0.0 0.456083 0.0 -> 0 0.928890258423 0
% INFO    : Updated Generator Cost: NG - 0.0 1.127826 0.0 -> 0 0.823494821679 0
% INFO    : Updated Generator Cost: COW - 0.0 0.743881 0.0 -> 0 1.28174829247 0
% INFO    : Updated Generator Cost: NG - 0.0 0.65631 0.0 -> 0 1.06045693633 0
% INFO    : Updated Generator Cost: NG - 0.0 1.106559 0.0 -> 0 1.35303877695 0
% INFO    : Updated Generator Cost: COW - 0.0 0.74641 0.0 -> 0 0.712216973509 0
% INFO    : Updated Generator Cost: COW - 0.0 0.569682 0.0 -> 0 0.5902807638 0
% INFO    : Updated Generator Cost: NG - 0.0 0.914188 0.0 -> 0 1.10985650152 0
% INFO    : Updated Generator Cost: NG - 0.0 0.881792 0.0 -> 0 0.776444461793 0
% INFO    : 
% INFO    : === Voltage Setpoint Replacement Notes ===
% INFO    : Bus 1	: V=1.03841, theta=2.00301 -> V=1.04038, theta=5.20004
% INFO    : Bus 2	: V=1.03378, theta=-3.04416 -> V=1.04234, theta=0.4865
% INFO    : Bus 3	: V=0.99919, theta=-5.84738 -> V=0.99797, theta=-3.83003
% INFO    : Bus 4	: V=1.01636, theta=-7.23222 -> V=1.01665, theta=-5.01486
% INFO    : Bus 5	: V=1.05565, theta=2.66535 -> V=1.0536, theta=6.39688
% INFO    : Bus 6	: V=0.99069, theta=9.00459 -> V=0.99791, theta=12.10317
% INFO    : Bus 7	: V=1.0303, theta=-3.38787 -> V=1.04014, theta=0.23867
% INFO    : Bus 8	: V=1.04986, theta=-6.79833 -> V=1.05966, theta=-3.11707
% INFO    : Bus 9	: V=1.03496, theta=-0.68791 -> V=1.04673, theta=3.01227
% INFO    : Bus 10	: V=0.98425, theta=-11.51262 -> V=1.00346, theta=-6.94232
% INFO    : Bus 11	: V=0.99306, theta=-7.9075 -> V=1.01238, theta=-3.35327
% INFO    : Bus 12	: V=1.05081, theta=-6.63908 -> V=1.06, theta=-3.0111
% INFO    : Bus 13	: V=1.0316, theta=-4.40087 -> V=1.04284, theta=-0.81441
% INFO    : Bus 14	: V=1.05121, theta=-3.78636 -> V=1.05707, theta=-0.22186
% INFO    : Bus 15	: V=1.01582, theta=0.1824 -> V=1.03299, theta=3.84865
% INFO    : Bus 16	: V=1.05379, theta=-4.87705 -> V=1.05523, theta=-3.65135
% INFO    : Bus 17	: V=1.05776, theta=-4.24833 -> V=1.05753, theta=-3.30806
% INFO    : Bus 18	: V=1.06, theta=-8.61557 -> V=1.06, theta=-7.59077
% INFO    : Bus 19	: V=1.00211, theta=-12.5954 -> V=1.00009, theta=-12.18229
% INFO    : Bus 20	: V=0.96468, theta=-9.76822 -> V=0.98622, theta=-4.22301
% INFO    : Bus 21	: V=1.04663, theta=-5.51941 -> V=1.04495, theta=-4.90409
% INFO    : Bus 22	: V=1.029, theta=-12.00735 -> V=1.02617, theta=-11.7424
% INFO    : Bus 23	: V=0.99529, theta=-10.18928 -> V=1.00785, theta=-6.95746
% INFO    : Bus 24	: V=1.00467, theta=-8.42203 -> V=1.01589, theta=-5.33433
% INFO    : Bus 25	: V=0.99105, theta=-4.33107 -> V=1.00308, theta=-1.10158
% INFO    : Bus 26	: V=1.00175, theta=4.12158 -> V=1.02792, theta=8.94739
% INFO    : Bus 27	: V=0.99653, theta=-5.40466 -> V=1.00417, theta=-3.23987
% INFO    : Bus 28	: V=0.98679, theta=-11.18566 -> V=0.99356, theta=-8.66838
% INFO    : Bus 29	: V=0.99025, theta=-12.88138 -> V=0.99428, theta=-10.97702
% INFO    : Bus 30	: V=1.01124, theta=-14.56723 -> V=1.01032, theta=-13.62363
% INFO    : Bus 31	: V=0.98946, theta=-12.02843 -> V=0.99504, theta=-9.99666
% INFO    : Bus 32	: V=1.01356, theta=-15.77456 -> V=1.01162, theta=-14.98181
% INFO    : Bus 33	: V=0.99874, theta=-17.67449 -> V=0.9964, theta=-16.90909
% INFO    : Bus 34	: V=0.99095, theta=-17.56616 -> V=0.98865, theta=-16.71569
% INFO    : Bus 35	: V=0.98545, theta=-19.00878 -> V=0.98134, theta=-18.75577
% INFO    : Bus 36	: V=0.99269, theta=-17.91972 -> V=0.99139, theta=-16.83204
% INFO    : Bus 37	: V=0.99861, theta=-5.39165 -> V=0.99967, theta=-4.19803
% INFO    : Bus 38	: V=1.01274, theta=-12.54024 -> V=1.00997, theta=-12.33602
% INFO    : Bus 39	: V=0.9792, theta=-7.50903 -> V=0.97816, theta=-6.88593
% INFO    : Bus 40	: V=0.99078, theta=-16.47291 -> V=0.98632, theta=-16.41127
% INFO    : Bus 41	: V=0.99247, theta=-14.45661 -> V=0.98835, theta=-14.51457
% INFO    : Bus 42	: V=0.98405, theta=-7.03126 -> V=0.98314, theta=-6.57549
% INFO    : Bus 43	: V=0.98744, theta=-10.08503 -> V=0.98671, theta=-9.71396
% INFO    : Bus 44	: V=0.98209, theta=-10.55835 -> V=0.98089, theta=-10.33034
% INFO    : Bus 45	: V=0.98357, theta=-11.54564 -> V=0.99352, theta=-8.39139
% INFO    : Bus 46	: V=0.98418, theta=-14.5394 -> V=0.99645, theta=-11.07856
% INFO    : Bus 47	: V=0.96768, theta=-16.56057 -> V=0.97361, theta=-14.02041
% INFO    : Bus 48	: V=0.97005, theta=-14.45376 -> V=0.97357, theta=-12.455
% INFO    : Bus 49	: V=0.96562, theta=-16.92507 -> V=0.97128, theta=-14.40608
% INFO    : Bus 50	: V=0.97098, theta=-13.06146 -> V=0.97268, theta=-11.098
% INFO    : Bus 51	: V=0.97527, theta=-11.58712 -> V=0.97772, theta=-9.37705
% INFO    : Bus 52	: V=1.00857, theta=-13.34563 -> V=1.01168, theta=-12.04666
% INFO    : Bus 53	: V=0.98237, theta=-7.41884 -> V=1.00282, theta=-2.0691
% INFO    : Bus 54	: V=0.9712, theta=-13.40445 -> V=0.98019, theta=-10.14709
% INFO    : Bus 55	: V=0.98193, theta=-7.21325 -> V=1.00307, theta=-1.7392
% INFO    : Bus 56	: V=0.97809, theta=-15.73791 -> V=0.98264, theta=-13.26567
% INFO    : Bus 57	: V=0.97151, theta=-13.10925 -> V=0.98081, theta=-9.53326
% INFO    : Bus 58	: V=1.00672, theta=-4.29637 -> V=1.02509, theta=-0.32703
% INFO    : Bus 59	: V=0.98223, theta=-8.91224 -> V=1.00085, theta=-4.72142
% INFO    : Bus 60	: V=1.00349, theta=-9.52202 -> V=1.02148, theta=-5.6697
% INFO    : Bus 61	: V=0.98819, theta=-7.01415 -> V=1.00601, theta=-3.16058
% INFO    : Bus 62	: V=1.02115, theta=6.38245 -> V=1.03584, theta=9.56513
% INFO    : Bus 63	: V=0.99077, theta=-5.25782 -> V=1.00834, theta=-1.51742
% INFO    : Bus 64	: V=1.02579, theta=-4.62424 -> V=1.04381, theta=-0.69971
% INFO    : Bus 65	: V=1.02705, theta=-0.82502 -> V=1.04128, theta=2.42281
% INFO    : Bus 66	: V=0.99779, theta=-7.08482 -> V=1.01703, theta=-2.68479
% INFO    : Bus 67	: V=0.99032, theta=-16.64837 -> V=0.99175, theta=-14.83193
% INFO    : Bus 68	: V=1.00126, theta=-14.89422 -> V=1.00331, theta=-12.8983
% INFO    : Bus 69	: V=1.00739, theta=-13.47291 -> V=1.01001, theta=-11.34059
% INFO    : Bus 70	: V=0.99862, theta=-1.75835 -> V=1.03612, theta=5.74051
% INFO    : Bus 71	: V=0.96918, theta=-9.19042 -> V=0.98833, theta=-3.21262
% INFO    : Bus 72	: V=1.03888, theta=-3.64671 -> V=1.04613, theta=-0.00874
% INFO    : Bus 73	: V=0.96775, theta=-1.75835 -> V=1.02632, theta=10.22655
% INFO    : Bus 74	: V=0.99758, theta=-7.80156 -> V=1.00227, theta=-5.08104
% INFO    : Bus 75	: V=1.03612, theta=1.71615 -> V=1.04965, theta=5.47401
% INFO    : Bus 76	: V=0.95868, theta=10.46393 -> V=0.98629, theta=14.96696
% INFO    : Bus 77	: V=0.99986, theta=-15.05788 -> V=1.00047, theta=-13.33152
% INFO    : Bus 78	: V=1.00843, theta=-12.81007 -> V=1.01248, theta=-10.38528
% INFO    : Bus 79	: V=1.01792, theta=-10.56934 -> V=1.02219, theta=-8.10767
% INFO    : Bus 80	: V=0.98982, theta=-13.41414 -> V=0.99617, theta=-10.4931
% INFO    : Bus 81	: V=0.98787, theta=-20.88962 -> V=0.98123, theta=-21.47461
% INFO    : Bus 82	: V=0.98812, theta=-16.40971 -> V=0.98354, theta=-16.43482
% INFO    : Bus 83	: V=0.99036, theta=-15.4461 -> V=0.98601, theta=-15.4873
% INFO    : Bus 84	: V=0.98275, theta=-11.75494 -> V=0.97969, theta=-11.86154
% INFO    : Bus 85	: V=0.9498, theta=-17.47858 -> V=0.95535, theta=-13.70177
% INFO    : Bus 86	: V=0.94821, theta=-20.57928 -> V=0.95099, theta=-18.23044
% INFO    : Bus 87	: V=0.95729, theta=-18.7354 -> V=0.96172, theta=-16.31811
% INFO    : Bus 88	: V=0.96959, theta=-19.37665 -> V=0.97058, theta=-18.41671
% INFO    : Bus 89	: V=0.96874, theta=-21.67672 -> V=0.97224, theta=-19.6195
% INFO    : Bus 90	: V=0.94, theta=-23.96323 -> V=0.94, theta=-22.64426
% INFO    : Bus 91	: V=0.98464, theta=-10.50216 -> V=0.98284, theta=-10.6133
% INFO    : Bus 92	: V=0.97563, theta=-11.71503 -> V=0.97348, theta=-11.8087
% INFO    : Bus 93	: V=0.98672, theta=-5.99591 -> V=0.98573, theta=-5.99831
% INFO    : Bus 94	: V=1.00477, theta=-11.29923 -> V=1.00392, theta=-11.04163
% INFO    : Bus 95	: V=1.00693, theta=-10.37608 -> V=1.0049, theta=-10.59201
% INFO    : Bus 96	: V=0.98822, theta=-19.48988 -> V=0.98909, theta=-19.04647
% INFO    : Bus 97	: V=1.00052, theta=-11.51347 -> V=0.99934, theta=-11.50263
% INFO    : Bus 98	: V=1.00417, theta=-8.88521 -> V=1.00256, theta=-9.08163
% INFO    : Bus 99	: V=1.01047, theta=-4.82034 -> V=1.00821, theta=-5.00497
% INFO    : Bus 100	: V=0.97632, theta=-20.354 -> V=0.9748, theta=-19.90696
% INFO    : Bus 101	: V=0.99547, theta=-14.04737 -> V=0.99859, theta=-13.68793
% INFO    : Bus 102	: V=0.97743, theta=-11.34282 -> V=0.97563, theta=-11.28673
% INFO    : Bus 103	: V=0.99036, theta=-9.15198 -> V=0.99017, theta=-8.69157
% INFO    : Bus 104	: V=0.98416, theta=-19.21613 -> V=0.98207, theta=-18.56377
% INFO    : Bus 105	: V=1.01742, theta=-13.01005 -> V=1.01531, theta=-13.02582
% INFO    : Bus 106	: V=0.97483, theta=-17.40352 -> V=0.97583, theta=-16.46014
% INFO    : Bus 107	: V=0.96026, theta=-18.38815 -> V=0.95995, theta=-17.7944
% INFO    : Bus 108	: V=0.94, theta=0.0 -> V=0.94, theta=-0.0
% INFO    : Bus 109	: V=0.99767, theta=-7.34244 -> V=0.99739, theta=-6.72586
% INFO    : Bus 110	: V=1.04147, theta=-2.24956 -> V=1.04993, theta=0.87881
% INFO    : Bus 111	: V=1.01396, theta=-6.86474 -> V=1.01836, theta=-4.30072
% INFO    : Bus 112	: V=1.04451, theta=0.26355 -> V=1.04782, theta=3.67037
% INFO    : Bus 113	: V=1.03903, theta=-3.68854 -> V=1.04613, theta=-0.21109
% INFO    : Bus 114	: V=1.02037, theta=4.06326 -> V=1.06, theta=6.21727
% INFO    : Bus 115	: V=1.01389, theta=-9.64944 -> V=1.01467, theta=-7.71355
% INFO    : Bus 116	: V=1.01768, theta=-11.10399 -> V=1.01872, theta=-9.38723
% INFO    : Bus 117	: V=1.00905, theta=-11.70262 -> V=1.01001, theta=-10.03575
% INFO    : Bus 118	: V=1.01167, theta=-7.97823 -> V=1.0244, theta=-7.1163
% INFO    : Bus 119	: V=1.00293, theta=-9.04543 -> V=1.00375, theta=-7.10034
% INFO    : Bus 120	: V=1.0417, theta=-0.15105 -> V=1.04624, theta=3.39271
% INFO    : Bus 121	: V=1.02461, theta=7.65514 -> V=1.01975, theta=11.19412
% INFO    : Bus 122	: V=0.94513, theta=-20.54195 -> V=0.94454, theta=-20.06209
% INFO    : Bus 123	: V=0.94, theta=-21.02418 -> V=0.94, theta=-20.44756
% INFO    : Bus 124	: V=0.9896, theta=-5.353 -> V=0.98944, theta=-4.801
% INFO    : Bus 125	: V=1.02519, theta=-4.94102 -> V=1.02769, theta=-4.47391
% INFO    : Bus 126	: V=1.01012, theta=-1.57319 -> V=1.01599, theta=0.30982
% INFO    : Bus 127	: V=1.02141, theta=-4.61652 -> V=1.0223, theta=-3.46023
% INFO    : Bus 128	: V=1.03875, theta=-0.09955 -> V=1.04648, theta=3.53072
% INFO    : Bus 129	: V=1.0434, theta=-0.28444 -> V=1.04743, theta=3.28486
% INFO    : Bus 130	: V=1.03531, theta=9.16491 -> V=1.05892, theta=12.49058
% INFO    : Bus 131	: V=1.06, theta=6.53385 -> V=1.04698, theta=11.0376
% INFO    : Bus 132	: V=1.04332, theta=-3.16201 -> V=1.04924, theta=0.44438
% INFO    : Bus 133	: V=1.04921, theta=-4.88748 -> V=1.05712, theta=-1.72714
% INFO    : Bus 134	: V=1.03698, theta=-3.58738 -> V=1.04438, theta=-0.21895
% INFO    : Bus 135	: V=1.046, theta=-4.931 -> V=1.05377, theta=-1.80525
% INFO    : Bus 136	: V=1.03931, theta=-5.19161 -> V=1.04678, theta=-2.13144
% INFO    : Bus 137	: V=1.043, theta=-5.15319 -> V=1.05069, theta=-2.06837
% INFO    : Bus 138	: V=1.04504, theta=-3.99854 -> V=1.05301, theta=-0.9272
% INFO    : Bus 139	: V=1.04026, theta=-4.75386 -> V=1.04786, theta=-1.70239
% INFO    : Bus 140	: V=1.04247, theta=-5.0798 -> V=1.05016, theta=-2.00484
% INFO    : Bus 141	: V=1.00394, theta=-6.81384 -> V=1.00842, theta=-4.10414
% INFO    : Bus 142	: V=1.01574, theta=-13.80444 -> V=1.01756, theta=-11.76748
% INFO    : Bus 143	: V=1.00131, theta=-12.43908 -> V=1.00306, theta=-10.26186
...